version 3
run RoutingProtocol-0-20210308-23:53:31-5407
attr configname RoutingProtocol
attr datetime 20210308-23:53:31
attr datetimef 20210308-235331
attr experiment RoutingProtocol
attr inifile omnetpp.ini
attr iterationvars ""
attr iterationvarsf ""
attr measurement ""
attr network veins_proj.examples.test.Scenario
attr processid 5407
attr repetition 0
attr replication #0
attr resultdir results
attr runnumber 0
attr seedset 0
itervar iterationvarsd ""
config debug-on-errors true
config image-path ../../images:../../../veins/images:../../../inet/images:../../../veins_inet/images
config extends Base
config *.host[*].mobility.coordinateSystemModule "\"coordinateSystem\""
config *.host[*].mobility.initialAltitude 0m
config *.host[0].mobility.initialLatitude 19.4494283deg
config *.host[0].mobility.initialLongitude -99.1598713deg
config *.host[1].mobility.initialLatitude 19.4486142deg
config *.host[1].mobility.initialLongitude -99.1600466deg
config **.routingProtocol.beaconInterval 0.5s
config **.routingProtocol.proximityRadius 100m
config *.host[*].numApps 1
config *.host[*].app[0].typename inet.applications.pingapp.PingApp
config *.host[*].app[0].printPing true
config *.host[0].app[0].srcAddr "\"fec0:0:12f1:dbb8:8aa:ff:fe00:1\""
config *.host[0].app[0].destAddr "\"fec0:0:12f1:dbb8:8aa:ff:fe00:2\""
config *.host[0].app[0].startTime 1s
config network veins_proj.examples.test.Scenario
config *.node[*].mobility.typename org.car2x.veins.subprojects.veins_proj.mobility.CarMobility
config *.node[*].mobility.vertexProximityRadius 10m
config *.host[*].mobility.typename org.car2x.veins.subprojects.veins_proj.mobility.StaticHostMobility
config **.wlan[*].typename AckingWirelessInterface
config **.wlan[*].bitrate 2Mbps
config **.wlan[*].mac.headerLength 23B
config **.wlan[*].radio.typename inet.physicallayer.wireless.unitdisk.UnitDiskRadio
config **.wlan[*].radio.transmitter.communicationRange 200m
config **.wlan[*].radio.transmitter.bitrate 11Mbps
config **.wlan[*].radio.transmitter.headerLength 96b
config *.visualizer.*.mediumVisualizer.displayCommunicationRanges true
config *.visualizer.*.packetDropVisualizer[*].displayPacketDrops false
config *.visualizer.*.dataLinkVisualizer.displayLinks true
config *.visualizer.*.dataLinkVisualizer[*].fadeOutTime 2s
config *.visualizer.*.networkRouteVisualizer[*].displayRoutes true
config *.visualizer.*.networkRouteVisualizer[*].packetFilter "\"ping*\""
config *.visualizer.*.networkRouteVisualizer[*].fadeOutMode "\"simulationTime\""
config *.visualizer.*.networkRouteVisualizer[*].fadeOutTime 2s
config *.coordinateSystem.sceneLatitude 19.4512939453deg
config *.coordinateSystem.sceneLongitude -99.1625976562deg
config sim-time-limit 600s
config debug-on-errors true
config cmdenv-express-mode true
config image-path ../../images
config **.scalar-recording true
config **.vector-recording true
config *.manager.updateInterval 0.5s
config *.manager.host "\"localhost\""
config *.manager.port 9999
config *.manager.autoShutdown true
config *.manager.launchConfig "xmldoc(\"9g3qxs.launchd.xml\")"
config *.manager.moduleType "\"org.car2x.veins.subprojects.veins_proj.node.Car\""
config *.obstacles.obstacles "xmldoc(\"config.xml\", \"//AnalogueModel[@type='SimpleObstacleShadowing']/obstacles\")"

vector 0 Scenario.host[0].wlan[0].radio radioMode:vector ETV
attr interpolationmode sample-hold
attr source radioModeChanged
attr title "Radio mode, vector"
vector 1 Scenario.host[1].wlan[0].radio radioMode:vector ETV
attr interpolationmode sample-hold
attr source radioModeChanged
attr title "Radio mode, vector"
vector 2 Scenario.host[0].wlan[0].radio receptionState:vector ETV
attr interpolationmode sample-hold
attr source receptionStateChanged
attr title "Radio reception state, vector"
vector 3 Scenario.host[0].wlan[0].radio transmissionState:vector ETV
attr interpolationmode sample-hold
attr source transmissionStateChanged
attr title "Radio transmission state, vector"
vector 4 Scenario.host[1].wlan[0].radio receptionState:vector ETV
attr interpolationmode sample-hold
attr source receptionStateChanged
attr title "Radio reception state, vector"
vector 5 Scenario.host[1].wlan[0].radio transmissionState:vector ETV
attr interpolationmode sample-hold
attr source transmissionStateChanged
attr title "Radio transmission state, vector"
vector 6 Scenario.node[0].wlan[0].radio radioMode:vector ETV
attr interpolationmode sample-hold
attr source radioModeChanged
attr title "Radio mode, vector"
vector 7 Scenario.node[0].wlan[0].radio receptionState:vector ETV
attr interpolationmode sample-hold
attr source receptionStateChanged
attr title "Radio reception state, vector"
vector 8 Scenario.node[0].wlan[0].radio transmissionState:vector ETV
attr interpolationmode sample-hold
attr source transmissionStateChanged
attr title "Radio transmission state, vector"
vector 9 Scenario.node[0].ipv6.neighbourDiscovery startDad:vector ETV
attr title "DAD started, vector"
vector 10 Scenario.node[0].wlan[0].mac rcvdPkFromHl:vector(packetBytes) ETV
attr interpolationmode none
attr source packetReceivedFromUpper
attr title "packets received from higher layer, vector(packetBytes)"
vector 11 Scenario.node[0].wlan[0].mac.queue packetPushed:vector(packetBytes) ETV
attr interpolationmode none
attr title "packet pushed, vector(packetBytes)"
vector 12 Scenario.node[0].wlan[0].mac.queue queueLength:vector ETV
attr autoWarmupFilter false
attr interpolationmode sample-hold
attr source "warmup(count(packetPushed) - count(packetPulled) - count(packetRemoved) - count(packetDropped))"
attr title "queue length, vector"
attr type int
vector 13 Scenario.node[0].wlan[0].mac.queue packetPulled:vector(packetBytes) ETV
attr interpolationmode none
attr title "packet pulled, vector(packetBytes)"
vector 14 Scenario.node[0].wlan[0].mac.queue queueingTime:vector ETV
attr interpolationmode none
attr source queueingTime(packetPulled)
attr title "queueing times, vector"
attr unit s
vector 15 Scenario.node[0].wlan[0].mac sentDownPk:vector(packetBytes) ETV
attr interpolationmode none
attr source packetSentToLower
attr title "packets sent to lower layer, vector(packetBytes)"
vector 16 Scenario.host[1].wlan[0].mac rcvdPkFromLl:vector(packetBytes) ETV
attr interpolationmode none
attr source packetReceivedFromLower
attr title "packets received from lower layer, vector(packetBytes)"
vector 17 Scenario.host[1].wlan[0].mac passedUpPk:vector(packetBytes) ETV
attr interpolationmode none
attr source packetSentToUpper
attr title "packets passed to higher layer, vector(packetBytes)"
vector 18 Scenario.host[0].wlan[0].mac rcvdPkFromLl:vector(packetBytes) ETV
attr interpolationmode none
attr source packetReceivedFromLower
attr title "packets received from lower layer, vector(packetBytes)"
vector 19 Scenario.host[0].wlan[0].mac passedUpPk:vector(packetBytes) ETV
attr interpolationmode none
attr source packetSentToUpper
attr title "packets passed to higher layer, vector(packetBytes)"
vector 20 Scenario.host[1].ipv6.neighbourDiscovery startDad:vector ETV
attr title "DAD started, vector"
vector 21 Scenario.host[1].wlan[0].mac rcvdPkFromHl:vector(packetBytes) ETV
attr interpolationmode none
attr source packetReceivedFromUpper
attr title "packets received from higher layer, vector(packetBytes)"
vector 22 Scenario.host[1].wlan[0].mac.queue packetPushed:vector(packetBytes) ETV
attr interpolationmode none
attr title "packet pushed, vector(packetBytes)"
vector 23 Scenario.host[1].wlan[0].mac.queue queueLength:vector ETV
attr autoWarmupFilter false
attr interpolationmode sample-hold
attr source "warmup(count(packetPushed) - count(packetPulled) - count(packetRemoved) - count(packetDropped))"
attr title "queue length, vector"
attr type int
vector 24 Scenario.host[1].wlan[0].mac.queue packetPulled:vector(packetBytes) ETV
attr interpolationmode none
attr title "packet pulled, vector(packetBytes)"
vector 25 Scenario.host[1].wlan[0].mac.queue queueingTime:vector ETV
attr interpolationmode none
attr source queueingTime(packetPulled)
attr title "queueing times, vector"
attr unit s
vector 26 Scenario.host[1].wlan[0].mac sentDownPk:vector(packetBytes) ETV
attr interpolationmode none
attr source packetSentToLower
attr title "packets sent to lower layer, vector(packetBytes)"
vector 27 Scenario.node[0].wlan[0].mac rcvdPkFromLl:vector(packetBytes) ETV
attr interpolationmode none
attr source packetReceivedFromLower
attr title "packets received from lower layer, vector(packetBytes)"
vector 28 Scenario.node[0].wlan[0].mac passedUpPk:vector(packetBytes) ETV
attr interpolationmode none
attr source packetSentToUpper
attr title "packets passed to higher layer, vector(packetBytes)"
vector 29 Scenario.host[0].ipv6.neighbourDiscovery startDad:vector ETV
attr title "DAD started, vector"
vector 30 Scenario.host[0].wlan[0].mac rcvdPkFromHl:vector(packetBytes) ETV
attr interpolationmode none
attr source packetReceivedFromUpper
attr title "packets received from higher layer, vector(packetBytes)"
vector 31 Scenario.host[0].wlan[0].mac.queue packetPushed:vector(packetBytes) ETV
attr interpolationmode none
attr title "packet pushed, vector(packetBytes)"
vector 32 Scenario.host[0].wlan[0].mac.queue queueLength:vector ETV
attr autoWarmupFilter false
attr interpolationmode sample-hold
attr source "warmup(count(packetPushed) - count(packetPulled) - count(packetRemoved) - count(packetDropped))"
attr title "queue length, vector"
attr type int
vector 33 Scenario.host[0].wlan[0].mac.queue packetPulled:vector(packetBytes) ETV
attr interpolationmode none
attr title "packet pulled, vector(packetBytes)"
vector 34 Scenario.host[0].wlan[0].mac.queue queueingTime:vector ETV
attr interpolationmode none
attr source queueingTime(packetPulled)
attr title "queueing times, vector"
attr unit s
vector 35 Scenario.host[0].wlan[0].mac sentDownPk:vector(packetBytes) ETV
attr interpolationmode none
attr source packetSentToLower
attr title "packets sent to lower layer, vector(packetBytes)"
vector 36 Scenario.host[0].app[0] pingTxSeq:vector ETV
attr interpolationmode none
attr title "ping tx seq, vector"
vector 37 Scenario.node[1].wlan[0].radio radioMode:vector ETV
attr interpolationmode sample-hold
attr source radioModeChanged
attr title "Radio mode, vector"
vector 38 Scenario.node[1].wlan[0].radio receptionState:vector ETV
attr interpolationmode sample-hold
attr source receptionStateChanged
attr title "Radio reception state, vector"
vector 39 Scenario.node[1].wlan[0].radio transmissionState:vector ETV
attr interpolationmode sample-hold
attr source transmissionStateChanged
attr title "Radio transmission state, vector"
vector 40 Scenario.node[1].ipv6.neighbourDiscovery startDad:vector ETV
attr title "DAD started, vector"
vector 41 Scenario.node[1].wlan[0].mac rcvdPkFromHl:vector(packetBytes) ETV
attr interpolationmode none
attr source packetReceivedFromUpper
attr title "packets received from higher layer, vector(packetBytes)"
vector 42 Scenario.node[1].wlan[0].mac.queue packetPushed:vector(packetBytes) ETV
attr interpolationmode none
attr title "packet pushed, vector(packetBytes)"
vector 43 Scenario.node[1].wlan[0].mac.queue queueLength:vector ETV
attr autoWarmupFilter false
attr interpolationmode sample-hold
attr source "warmup(count(packetPushed) - count(packetPulled) - count(packetRemoved) - count(packetDropped))"
attr title "queue length, vector"
attr type int
vector 44 Scenario.node[1].wlan[0].mac.queue packetPulled:vector(packetBytes) ETV
attr interpolationmode none
attr title "packet pulled, vector(packetBytes)"
vector 45 Scenario.node[1].wlan[0].mac.queue queueingTime:vector ETV
attr interpolationmode none
attr source queueingTime(packetPulled)
attr title "queueing times, vector"
attr unit s
vector 46 Scenario.node[1].wlan[0].mac sentDownPk:vector(packetBytes) ETV
attr interpolationmode none
attr source packetSentToLower
attr title "packets sent to lower layer, vector(packetBytes)"
vector 47 Scenario.node[2].wlan[0].radio radioMode:vector ETV
attr interpolationmode sample-hold
attr source radioModeChanged
attr title "Radio mode, vector"
vector 48 Scenario.node[2].wlan[0].radio receptionState:vector ETV
attr interpolationmode sample-hold
attr source receptionStateChanged
attr title "Radio reception state, vector"
vector 49 Scenario.node[2].wlan[0].radio transmissionState:vector ETV
attr interpolationmode sample-hold
attr source transmissionStateChanged
attr title "Radio transmission state, vector"
vector 50 Scenario.node[2].ipv6.neighbourDiscovery startDad:vector ETV
attr title "DAD started, vector"
vector 51 Scenario.node[2].wlan[0].mac rcvdPkFromHl:vector(packetBytes) ETV
attr interpolationmode none
attr source packetReceivedFromUpper
attr title "packets received from higher layer, vector(packetBytes)"
vector 52 Scenario.node[2].wlan[0].mac.queue packetPushed:vector(packetBytes) ETV
attr interpolationmode none
attr title "packet pushed, vector(packetBytes)"
vector 53 Scenario.node[2].wlan[0].mac.queue queueLength:vector ETV
attr autoWarmupFilter false
attr interpolationmode sample-hold
attr source "warmup(count(packetPushed) - count(packetPulled) - count(packetRemoved) - count(packetDropped))"
attr title "queue length, vector"
attr type int
vector 54 Scenario.node[2].wlan[0].mac.queue packetPulled:vector(packetBytes) ETV
attr interpolationmode none
attr title "packet pulled, vector(packetBytes)"
vector 55 Scenario.node[2].wlan[0].mac.queue queueingTime:vector ETV
attr interpolationmode none
attr source queueingTime(packetPulled)
attr title "queueing times, vector"
attr unit s
vector 56 Scenario.node[2].wlan[0].mac sentDownPk:vector(packetBytes) ETV
attr interpolationmode none
attr source packetSentToLower
attr title "packets sent to lower layer, vector(packetBytes)"
vector 57 Scenario.node[3].wlan[0].radio radioMode:vector ETV
attr interpolationmode sample-hold
attr source radioModeChanged
attr title "Radio mode, vector"
vector 58 Scenario.node[3].wlan[0].radio receptionState:vector ETV
attr interpolationmode sample-hold
attr source receptionStateChanged
attr title "Radio reception state, vector"
vector 59 Scenario.node[3].wlan[0].radio transmissionState:vector ETV
attr interpolationmode sample-hold
attr source transmissionStateChanged
attr title "Radio transmission state, vector"
vector 60 Scenario.host[1].wlan[0].mac packetDropNotAddressedToUs:vector(packetBytes) ETV
attr interpolationmode none
attr source packetDropReasonIsNotAddressedToUs(packetDropped)
attr title "packet drop: not addressed to us, vector(packetBytes)"
vector 61 Scenario.host[0].wlan[0].mac packetDropNotAddressedToUs:vector(packetBytes) ETV
attr interpolationmode none
attr source packetDropReasonIsNotAddressedToUs(packetDropped)
attr title "packet drop: not addressed to us, vector(packetBytes)"
vector 62 Scenario.host[0].app[0] pingRxSeq:vector ETV
attr interpolationmode none
attr title "ping rx seq, vector"
vector 63 Scenario.host[0].app[0] rtt:vector ETV
attr interpolationmode none
attr title "ping round-trip time, vector"
attr unit s
vector 64 Scenario.host[0].app[0] numLost:vector ETV
attr interpolationmode none
attr title "pings lost, vector"
vector 65 Scenario.node[3].ipv6.neighbourDiscovery startDad:vector ETV
attr title "DAD started, vector"
vector 66 Scenario.node[3].wlan[0].mac rcvdPkFromHl:vector(packetBytes) ETV
attr interpolationmode none
attr source packetReceivedFromUpper
attr title "packets received from higher layer, vector(packetBytes)"
vector 67 Scenario.node[3].wlan[0].mac.queue packetPushed:vector(packetBytes) ETV
attr interpolationmode none
attr title "packet pushed, vector(packetBytes)"
vector 68 Scenario.node[3].wlan[0].mac.queue queueLength:vector ETV
attr autoWarmupFilter false
attr interpolationmode sample-hold
attr source "warmup(count(packetPushed) - count(packetPulled) - count(packetRemoved) - count(packetDropped))"
attr title "queue length, vector"
attr type int
vector 69 Scenario.node[3].wlan[0].mac.queue packetPulled:vector(packetBytes) ETV
attr interpolationmode none
attr title "packet pulled, vector(packetBytes)"
vector 70 Scenario.node[3].wlan[0].mac.queue queueingTime:vector ETV
attr interpolationmode none
attr source queueingTime(packetPulled)
attr title "queueing times, vector"
attr unit s
vector 71 Scenario.node[3].wlan[0].mac sentDownPk:vector(packetBytes) ETV
attr interpolationmode none
attr source packetSentToLower
attr title "packets sent to lower layer, vector(packetBytes)"
vector 72 Scenario.node[2].wlan[0].mac rcvdPkFromLl:vector(packetBytes) ETV
attr interpolationmode none
attr source packetReceivedFromLower
attr title "packets received from lower layer, vector(packetBytes)"
vector 73 Scenario.node[2].wlan[0].mac passedUpPk:vector(packetBytes) ETV
attr interpolationmode none
attr source packetSentToUpper
attr title "packets passed to higher layer, vector(packetBytes)"
vector 74 Scenario.node[3].wlan[0].mac rcvdPkFromLl:vector(packetBytes) ETV
attr interpolationmode none
attr source packetReceivedFromLower
attr title "packets received from lower layer, vector(packetBytes)"
vector 75 Scenario.node[3].wlan[0].mac passedUpPk:vector(packetBytes) ETV
attr interpolationmode none
attr source packetSentToUpper
attr title "packets passed to higher layer, vector(packetBytes)"
vector 76 Scenario.node[4].wlan[0].radio radioMode:vector ETV
attr interpolationmode sample-hold
attr source radioModeChanged
attr title "Radio mode, vector"
vector 77 Scenario.node[4].wlan[0].radio receptionState:vector ETV
attr interpolationmode sample-hold
attr source receptionStateChanged
attr title "Radio reception state, vector"
vector 78 Scenario.node[4].wlan[0].radio transmissionState:vector ETV
attr interpolationmode sample-hold
attr source transmissionStateChanged
attr title "Radio transmission state, vector"
vector 79 Scenario.node[4].ipv6.neighbourDiscovery startDad:vector ETV
attr title "DAD started, vector"
vector 80 Scenario.node[4].wlan[0].mac rcvdPkFromHl:vector(packetBytes) ETV
attr interpolationmode none
attr source packetReceivedFromUpper
attr title "packets received from higher layer, vector(packetBytes)"
vector 81 Scenario.node[4].wlan[0].mac.queue packetPushed:vector(packetBytes) ETV
attr interpolationmode none
attr title "packet pushed, vector(packetBytes)"
vector 82 Scenario.node[4].wlan[0].mac.queue queueLength:vector ETV
attr autoWarmupFilter false
attr interpolationmode sample-hold
attr source "warmup(count(packetPushed) - count(packetPulled) - count(packetRemoved) - count(packetDropped))"
attr title "queue length, vector"
attr type int
vector 83 Scenario.node[4].wlan[0].mac.queue packetPulled:vector(packetBytes) ETV
attr interpolationmode none
attr title "packet pulled, vector(packetBytes)"
vector 84 Scenario.node[4].wlan[0].mac.queue queueingTime:vector ETV
attr interpolationmode none
attr source queueingTime(packetPulled)
attr title "queueing times, vector"
attr unit s
vector 85 Scenario.node[4].wlan[0].mac sentDownPk:vector(packetBytes) ETV
attr interpolationmode none
attr source packetSentToLower
attr title "packets sent to lower layer, vector(packetBytes)"
vector 86 Scenario.node[5].wlan[0].radio radioMode:vector ETV
attr interpolationmode sample-hold
attr source radioModeChanged
attr title "Radio mode, vector"
vector 87 Scenario.node[5].wlan[0].radio receptionState:vector ETV
attr interpolationmode sample-hold
attr source receptionStateChanged
attr title "Radio reception state, vector"
vector 88 Scenario.node[5].wlan[0].radio transmissionState:vector ETV
attr interpolationmode sample-hold
attr source transmissionStateChanged
attr title "Radio transmission state, vector"
vector 89 Scenario.node[5].ipv6.neighbourDiscovery startDad:vector ETV
attr title "DAD started, vector"
vector 90 Scenario.node[5].wlan[0].mac rcvdPkFromHl:vector(packetBytes) ETV
attr interpolationmode none
attr source packetReceivedFromUpper
attr title "packets received from higher layer, vector(packetBytes)"
vector 91 Scenario.node[5].wlan[0].mac.queue packetPushed:vector(packetBytes) ETV
attr interpolationmode none
attr title "packet pushed, vector(packetBytes)"
vector 92 Scenario.node[5].wlan[0].mac.queue queueLength:vector ETV
attr autoWarmupFilter false
attr interpolationmode sample-hold
attr source "warmup(count(packetPushed) - count(packetPulled) - count(packetRemoved) - count(packetDropped))"
attr title "queue length, vector"
attr type int
vector 93 Scenario.node[5].wlan[0].mac.queue packetPulled:vector(packetBytes) ETV
attr interpolationmode none
attr title "packet pulled, vector(packetBytes)"
vector 94 Scenario.node[5].wlan[0].mac.queue queueingTime:vector ETV
attr interpolationmode none
attr source queueingTime(packetPulled)
attr title "queueing times, vector"
attr unit s
vector 95 Scenario.node[5].wlan[0].mac sentDownPk:vector(packetBytes) ETV
attr interpolationmode none
attr source packetSentToLower
attr title "packets sent to lower layer, vector(packetBytes)"
vector 96 Scenario.node[5].wlan[0].mac rcvdPkFromLl:vector(packetBytes) ETV
attr interpolationmode none
attr source packetReceivedFromLower
attr title "packets received from lower layer, vector(packetBytes)"
vector 97 Scenario.node[5].wlan[0].mac passedUpPk:vector(packetBytes) ETV
attr interpolationmode none
attr source packetSentToUpper
attr title "packets passed to higher layer, vector(packetBytes)"
vector 98 Scenario.node[6].wlan[0].radio radioMode:vector ETV
attr interpolationmode sample-hold
attr source radioModeChanged
attr title "Radio mode, vector"
vector 99 Scenario.node[6].wlan[0].radio receptionState:vector ETV
attr interpolationmode sample-hold
attr source receptionStateChanged
attr title "Radio reception state, vector"
vector 100 Scenario.node[6].wlan[0].radio transmissionState:vector ETV
attr interpolationmode sample-hold
attr source transmissionStateChanged
attr title "Radio transmission state, vector"
vector 101 Scenario.node[6].ipv6.neighbourDiscovery startDad:vector ETV
attr title "DAD started, vector"
vector 102 Scenario.node[6].wlan[0].mac rcvdPkFromHl:vector(packetBytes) ETV
attr interpolationmode none
attr source packetReceivedFromUpper
attr title "packets received from higher layer, vector(packetBytes)"
vector 103 Scenario.node[6].wlan[0].mac.queue packetPushed:vector(packetBytes) ETV
attr interpolationmode none
attr title "packet pushed, vector(packetBytes)"
vector 104 Scenario.node[6].wlan[0].mac.queue queueLength:vector ETV
attr autoWarmupFilter false
attr interpolationmode sample-hold
attr source "warmup(count(packetPushed) - count(packetPulled) - count(packetRemoved) - count(packetDropped))"
attr title "queue length, vector"
attr type int
vector 105 Scenario.node[6].wlan[0].mac.queue packetPulled:vector(packetBytes) ETV
attr interpolationmode none
attr title "packet pulled, vector(packetBytes)"
vector 106 Scenario.node[6].wlan[0].mac.queue queueingTime:vector ETV
attr interpolationmode none
attr source queueingTime(packetPulled)
attr title "queueing times, vector"
attr unit s
vector 107 Scenario.node[6].wlan[0].mac sentDownPk:vector(packetBytes) ETV
attr interpolationmode none
attr source packetSentToLower
attr title "packets sent to lower layer, vector(packetBytes)"
vector 108 Scenario.node[1].wlan[0].mac rcvdPkFromLl:vector(packetBytes) ETV
attr interpolationmode none
attr source packetReceivedFromLower
attr title "packets received from lower layer, vector(packetBytes)"
vector 109 Scenario.node[1].wlan[0].mac passedUpPk:vector(packetBytes) ETV
attr interpolationmode none
attr source packetSentToUpper
attr title "packets passed to higher layer, vector(packetBytes)"
vector 110 Scenario.node[6].wlan[0].mac rcvdPkFromLl:vector(packetBytes) ETV
attr interpolationmode none
attr source packetReceivedFromLower
attr title "packets received from lower layer, vector(packetBytes)"
vector 111 Scenario.node[6].wlan[0].mac passedUpPk:vector(packetBytes) ETV
attr interpolationmode none
attr source packetSentToUpper
attr title "packets passed to higher layer, vector(packetBytes)"
vector 112 Scenario.node[7].wlan[0].radio radioMode:vector ETV
attr interpolationmode sample-hold
attr source radioModeChanged
attr title "Radio mode, vector"
vector 113 Scenario.node[7].wlan[0].radio receptionState:vector ETV
attr interpolationmode sample-hold
attr source receptionStateChanged
attr title "Radio reception state, vector"
vector 114 Scenario.node[7].wlan[0].radio transmissionState:vector ETV
attr interpolationmode sample-hold
attr source transmissionStateChanged
attr title "Radio transmission state, vector"
vector 115 Scenario.node[7].ipv6.neighbourDiscovery startDad:vector ETV
attr title "DAD started, vector"
vector 116 Scenario.node[7].wlan[0].mac rcvdPkFromHl:vector(packetBytes) ETV
attr interpolationmode none
attr source packetReceivedFromUpper
attr title "packets received from higher layer, vector(packetBytes)"
vector 117 Scenario.node[7].wlan[0].mac.queue packetPushed:vector(packetBytes) ETV
attr interpolationmode none
attr title "packet pushed, vector(packetBytes)"
vector 118 Scenario.node[7].wlan[0].mac.queue queueLength:vector ETV
attr autoWarmupFilter false
attr interpolationmode sample-hold
attr source "warmup(count(packetPushed) - count(packetPulled) - count(packetRemoved) - count(packetDropped))"
attr title "queue length, vector"
attr type int
vector 119 Scenario.node[7].wlan[0].mac.queue packetPulled:vector(packetBytes) ETV
attr interpolationmode none
attr title "packet pulled, vector(packetBytes)"
vector 120 Scenario.node[7].wlan[0].mac.queue queueingTime:vector ETV
attr interpolationmode none
attr source queueingTime(packetPulled)
attr title "queueing times, vector"
attr unit s
vector 121 Scenario.node[7].wlan[0].mac sentDownPk:vector(packetBytes) ETV
attr interpolationmode none
attr source packetSentToLower
attr title "packets sent to lower layer, vector(packetBytes)"
vector 122 Scenario.node[7].wlan[0].mac rcvdPkFromLl:vector(packetBytes) ETV
attr interpolationmode none
attr source packetReceivedFromLower
attr title "packets received from lower layer, vector(packetBytes)"
vector 123 Scenario.node[7].wlan[0].mac passedUpPk:vector(packetBytes) ETV
attr interpolationmode none
attr source packetSentToUpper
attr title "packets passed to higher layer, vector(packetBytes)"
vector 124 Scenario.node[8].wlan[0].radio radioMode:vector ETV
attr interpolationmode sample-hold
attr source radioModeChanged
attr title "Radio mode, vector"
vector 125 Scenario.node[8].wlan[0].radio receptionState:vector ETV
attr interpolationmode sample-hold
attr source receptionStateChanged
attr title "Radio reception state, vector"
vector 126 Scenario.node[8].wlan[0].radio transmissionState:vector ETV
attr interpolationmode sample-hold
attr source transmissionStateChanged
attr title "Radio transmission state, vector"
vector 127 Scenario.node[8].ipv6.neighbourDiscovery startDad:vector ETV
attr title "DAD started, vector"
vector 128 Scenario.node[8].wlan[0].mac rcvdPkFromHl:vector(packetBytes) ETV
attr interpolationmode none
attr source packetReceivedFromUpper
attr title "packets received from higher layer, vector(packetBytes)"
vector 129 Scenario.node[8].wlan[0].mac.queue packetPushed:vector(packetBytes) ETV
attr interpolationmode none
attr title "packet pushed, vector(packetBytes)"
vector 130 Scenario.node[8].wlan[0].mac.queue queueLength:vector ETV
attr autoWarmupFilter false
attr interpolationmode sample-hold
attr source "warmup(count(packetPushed) - count(packetPulled) - count(packetRemoved) - count(packetDropped))"
attr title "queue length, vector"
attr type int
vector 131 Scenario.node[8].wlan[0].mac.queue packetPulled:vector(packetBytes) ETV
attr interpolationmode none
attr title "packet pulled, vector(packetBytes)"
vector 132 Scenario.node[8].wlan[0].mac.queue queueingTime:vector ETV
attr interpolationmode none
attr source queueingTime(packetPulled)
attr title "queueing times, vector"
attr unit s
vector 133 Scenario.node[8].wlan[0].mac sentDownPk:vector(packetBytes) ETV
attr interpolationmode none
attr source packetSentToLower
attr title "packets sent to lower layer, vector(packetBytes)"
vector 134 Scenario.node[9].wlan[0].radio radioMode:vector ETV
attr interpolationmode sample-hold
attr source radioModeChanged
attr title "Radio mode, vector"
vector 135 Scenario.node[9].wlan[0].radio receptionState:vector ETV
attr interpolationmode sample-hold
attr source receptionStateChanged
attr title "Radio reception state, vector"
vector 136 Scenario.node[9].wlan[0].radio transmissionState:vector ETV
attr interpolationmode sample-hold
attr source transmissionStateChanged
attr title "Radio transmission state, vector"
vector 137 Scenario.node[9].ipv6.neighbourDiscovery startDad:vector ETV
attr title "DAD started, vector"
vector 138 Scenario.node[9].wlan[0].mac rcvdPkFromHl:vector(packetBytes) ETV
attr interpolationmode none
attr source packetReceivedFromUpper
attr title "packets received from higher layer, vector(packetBytes)"
vector 139 Scenario.node[9].wlan[0].mac.queue packetPushed:vector(packetBytes) ETV
attr interpolationmode none
attr title "packet pushed, vector(packetBytes)"
vector 140 Scenario.node[9].wlan[0].mac.queue queueLength:vector ETV
attr autoWarmupFilter false
attr interpolationmode sample-hold
attr source "warmup(count(packetPushed) - count(packetPulled) - count(packetRemoved) - count(packetDropped))"
attr title "queue length, vector"
attr type int
vector 141 Scenario.node[9].wlan[0].mac.queue packetPulled:vector(packetBytes) ETV
attr interpolationmode none
attr title "packet pulled, vector(packetBytes)"
vector 142 Scenario.node[9].wlan[0].mac.queue queueingTime:vector ETV
attr interpolationmode none
attr source queueingTime(packetPulled)
attr title "queueing times, vector"
attr unit s
vector 143 Scenario.node[9].wlan[0].mac sentDownPk:vector(packetBytes) ETV
attr interpolationmode none
attr source packetSentToLower
attr title "packets sent to lower layer, vector(packetBytes)"
vector 144 Scenario.node[10].wlan[0].radio radioMode:vector ETV
attr interpolationmode sample-hold
attr source radioModeChanged
attr title "Radio mode, vector"
vector 145 Scenario.node[10].wlan[0].radio receptionState:vector ETV
attr interpolationmode sample-hold
attr source receptionStateChanged
attr title "Radio reception state, vector"
vector 146 Scenario.node[10].wlan[0].radio transmissionState:vector ETV
attr interpolationmode sample-hold
attr source transmissionStateChanged
attr title "Radio transmission state, vector"
vector 147 Scenario.node[10].ipv6.neighbourDiscovery startDad:vector ETV
attr title "DAD started, vector"
vector 148 Scenario.node[10].wlan[0].mac rcvdPkFromHl:vector(packetBytes) ETV
attr interpolationmode none
attr source packetReceivedFromUpper
attr title "packets received from higher layer, vector(packetBytes)"
vector 149 Scenario.node[10].wlan[0].mac.queue packetPushed:vector(packetBytes) ETV
attr interpolationmode none
attr title "packet pushed, vector(packetBytes)"
vector 150 Scenario.node[10].wlan[0].mac.queue queueLength:vector ETV
attr autoWarmupFilter false
attr interpolationmode sample-hold
attr source "warmup(count(packetPushed) - count(packetPulled) - count(packetRemoved) - count(packetDropped))"
attr title "queue length, vector"
attr type int
vector 151 Scenario.node[10].wlan[0].mac.queue packetPulled:vector(packetBytes) ETV
attr interpolationmode none
attr title "packet pulled, vector(packetBytes)"
vector 152 Scenario.node[10].wlan[0].mac.queue queueingTime:vector ETV
attr interpolationmode none
attr source queueingTime(packetPulled)
attr title "queueing times, vector"
attr unit s
vector 153 Scenario.node[10].wlan[0].mac sentDownPk:vector(packetBytes) ETV
attr interpolationmode none
attr source packetSentToLower
attr title "packets sent to lower layer, vector(packetBytes)"
vector 154 Scenario.node[10].wlan[0].mac rcvdPkFromLl:vector(packetBytes) ETV
attr interpolationmode none
attr source packetReceivedFromLower
attr title "packets received from lower layer, vector(packetBytes)"
vector 155 Scenario.node[10].wlan[0].mac passedUpPk:vector(packetBytes) ETV
attr interpolationmode none
attr source packetSentToUpper
attr title "packets passed to higher layer, vector(packetBytes)"
vector 156 Scenario.node[11].wlan[0].radio radioMode:vector ETV
attr interpolationmode sample-hold
attr source radioModeChanged
attr title "Radio mode, vector"
vector 157 Scenario.node[11].wlan[0].radio receptionState:vector ETV
attr interpolationmode sample-hold
attr source receptionStateChanged
attr title "Radio reception state, vector"
vector 158 Scenario.node[11].wlan[0].radio transmissionState:vector ETV
attr interpolationmode sample-hold
attr source transmissionStateChanged
attr title "Radio transmission state, vector"
vector 159 Scenario.node[11].wlan[0].mac rcvdPkFromLl:vector(packetBytes) ETV
attr interpolationmode none
attr source packetReceivedFromLower
attr title "packets received from lower layer, vector(packetBytes)"
vector 160 Scenario.node[11].wlan[0].mac passedUpPk:vector(packetBytes) ETV
attr interpolationmode none
attr source packetSentToUpper
attr title "packets passed to higher layer, vector(packetBytes)"
vector 161 Scenario.node[11].ipv6.neighbourDiscovery startDad:vector ETV
attr title "DAD started, vector"
vector 162 Scenario.node[11].wlan[0].mac rcvdPkFromHl:vector(packetBytes) ETV
attr interpolationmode none
attr source packetReceivedFromUpper
attr title "packets received from higher layer, vector(packetBytes)"
vector 163 Scenario.node[11].wlan[0].mac.queue packetPushed:vector(packetBytes) ETV
attr interpolationmode none
attr title "packet pushed, vector(packetBytes)"
vector 164 Scenario.node[11].wlan[0].mac.queue queueLength:vector ETV
attr autoWarmupFilter false
attr interpolationmode sample-hold
attr source "warmup(count(packetPushed) - count(packetPulled) - count(packetRemoved) - count(packetDropped))"
attr title "queue length, vector"
attr type int
vector 165 Scenario.node[11].wlan[0].mac.queue packetPulled:vector(packetBytes) ETV
attr interpolationmode none
attr title "packet pulled, vector(packetBytes)"
vector 166 Scenario.node[11].wlan[0].mac.queue queueingTime:vector ETV
attr interpolationmode none
attr source queueingTime(packetPulled)
attr title "queueing times, vector"
attr unit s
vector 167 Scenario.node[11].wlan[0].mac sentDownPk:vector(packetBytes) ETV
attr interpolationmode none
attr source packetSentToLower
attr title "packets sent to lower layer, vector(packetBytes)"
vector 168 Scenario.node[12].wlan[0].radio radioMode:vector ETV
attr interpolationmode sample-hold
attr source radioModeChanged
attr title "Radio mode, vector"
vector 169 Scenario.node[12].wlan[0].radio receptionState:vector ETV
attr interpolationmode sample-hold
attr source receptionStateChanged
attr title "Radio reception state, vector"
vector 170 Scenario.node[12].wlan[0].radio transmissionState:vector ETV
attr interpolationmode sample-hold
attr source transmissionStateChanged
attr title "Radio transmission state, vector"
vector 171 Scenario.node[12].ipv6.neighbourDiscovery startDad:vector ETV
attr title "DAD started, vector"
vector 172 Scenario.node[12].wlan[0].mac rcvdPkFromHl:vector(packetBytes) ETV
attr interpolationmode none
attr source packetReceivedFromUpper
attr title "packets received from higher layer, vector(packetBytes)"
vector 173 Scenario.node[12].wlan[0].mac.queue packetPushed:vector(packetBytes) ETV
attr interpolationmode none
attr title "packet pushed, vector(packetBytes)"
vector 174 Scenario.node[12].wlan[0].mac.queue queueLength:vector ETV
attr autoWarmupFilter false
attr interpolationmode sample-hold
attr source "warmup(count(packetPushed) - count(packetPulled) - count(packetRemoved) - count(packetDropped))"
attr title "queue length, vector"
attr type int
vector 175 Scenario.node[12].wlan[0].mac.queue packetPulled:vector(packetBytes) ETV
attr interpolationmode none
attr title "packet pulled, vector(packetBytes)"
vector 176 Scenario.node[12].wlan[0].mac.queue queueingTime:vector ETV
attr interpolationmode none
attr source queueingTime(packetPulled)
attr title "queueing times, vector"
attr unit s
vector 177 Scenario.node[12].wlan[0].mac sentDownPk:vector(packetBytes) ETV
attr interpolationmode none
attr source packetSentToLower
attr title "packets sent to lower layer, vector(packetBytes)"
vector 178 Scenario.node[4].wlan[0].mac rcvdPkFromLl:vector(packetBytes) ETV
attr interpolationmode none
attr source packetReceivedFromLower
attr title "packets received from lower layer, vector(packetBytes)"
vector 179 Scenario.node[4].wlan[0].mac passedUpPk:vector(packetBytes) ETV
attr interpolationmode none
attr source packetSentToUpper
attr title "packets passed to higher layer, vector(packetBytes)"
vector 180 Scenario.node[13].wlan[0].radio radioMode:vector ETV
attr interpolationmode sample-hold
attr source radioModeChanged
attr title "Radio mode, vector"
vector 181 Scenario.node[13].wlan[0].radio receptionState:vector ETV
attr interpolationmode sample-hold
attr source receptionStateChanged
attr title "Radio reception state, vector"
vector 182 Scenario.node[13].wlan[0].radio transmissionState:vector ETV
attr interpolationmode sample-hold
attr source transmissionStateChanged
attr title "Radio transmission state, vector"
vector 183 Scenario.node[13].ipv6.neighbourDiscovery startDad:vector ETV
attr title "DAD started, vector"
vector 184 Scenario.node[13].wlan[0].mac rcvdPkFromHl:vector(packetBytes) ETV
attr interpolationmode none
attr source packetReceivedFromUpper
attr title "packets received from higher layer, vector(packetBytes)"
vector 185 Scenario.node[13].wlan[0].mac.queue packetPushed:vector(packetBytes) ETV
attr interpolationmode none
attr title "packet pushed, vector(packetBytes)"
vector 186 Scenario.node[13].wlan[0].mac.queue queueLength:vector ETV
attr autoWarmupFilter false
attr interpolationmode sample-hold
attr source "warmup(count(packetPushed) - count(packetPulled) - count(packetRemoved) - count(packetDropped))"
attr title "queue length, vector"
attr type int
vector 187 Scenario.node[13].wlan[0].mac.queue packetPulled:vector(packetBytes) ETV
attr interpolationmode none
attr title "packet pulled, vector(packetBytes)"
vector 188 Scenario.node[13].wlan[0].mac.queue queueingTime:vector ETV
attr interpolationmode none
attr source queueingTime(packetPulled)
attr title "queueing times, vector"
attr unit s
vector 189 Scenario.node[13].wlan[0].mac sentDownPk:vector(packetBytes) ETV
attr interpolationmode none
attr source packetSentToLower
attr title "packets sent to lower layer, vector(packetBytes)"
vector 190 Scenario.node[9].wlan[0].mac rcvdPkFromLl:vector(packetBytes) ETV
attr interpolationmode none
attr source packetReceivedFromLower
attr title "packets received from lower layer, vector(packetBytes)"
vector 191 Scenario.node[9].wlan[0].mac passedUpPk:vector(packetBytes) ETV
attr interpolationmode none
attr source packetSentToUpper
attr title "packets passed to higher layer, vector(packetBytes)"
vector 192 Scenario.node[8].wlan[0].mac rcvdPkFromLl:vector(packetBytes) ETV
attr interpolationmode none
attr source packetReceivedFromLower
attr title "packets received from lower layer, vector(packetBytes)"
vector 193 Scenario.node[8].wlan[0].mac passedUpPk:vector(packetBytes) ETV
attr interpolationmode none
attr source packetSentToUpper
attr title "packets passed to higher layer, vector(packetBytes)"
vector 194 Scenario.node[12].wlan[0].mac rcvdPkFromLl:vector(packetBytes) ETV
attr interpolationmode none
attr source packetReceivedFromLower
attr title "packets received from lower layer, vector(packetBytes)"
vector 195 Scenario.node[12].wlan[0].mac passedUpPk:vector(packetBytes) ETV
attr interpolationmode none
attr source packetSentToUpper
attr title "packets passed to higher layer, vector(packetBytes)"
vector 196 Scenario.node[13].wlan[0].mac rcvdPkFromLl:vector(packetBytes) ETV
attr interpolationmode none
attr source packetReceivedFromLower
attr title "packets received from lower layer, vector(packetBytes)"
vector 197 Scenario.node[13].wlan[0].mac passedUpPk:vector(packetBytes) ETV
attr interpolationmode none
attr source packetSentToUpper
attr title "packets passed to higher layer, vector(packetBytes)"
vector 198 Scenario.node[14].wlan[0].radio radioMode:vector ETV
attr interpolationmode sample-hold
attr source radioModeChanged
attr title "Radio mode, vector"
vector 199 Scenario.node[14].wlan[0].radio receptionState:vector ETV
attr interpolationmode sample-hold
attr source receptionStateChanged
attr title "Radio reception state, vector"
vector 200 Scenario.node[14].wlan[0].radio transmissionState:vector ETV
attr interpolationmode sample-hold
attr source transmissionStateChanged
attr title "Radio transmission state, vector"
vector 201 Scenario.node[14].wlan[0].mac rcvdPkFromLl:vector(packetBytes) ETV
attr interpolationmode none
attr source packetReceivedFromLower
attr title "packets received from lower layer, vector(packetBytes)"
vector 202 Scenario.node[14].wlan[0].mac packetDropNotAddressedToUs:vector(packetBytes) ETV
attr interpolationmode none
attr source packetDropReasonIsNotAddressedToUs(packetDropped)
attr title "packet drop: not addressed to us, vector(packetBytes)"
vector 203 Scenario.node[14].ipv6.neighbourDiscovery startDad:vector ETV
attr title "DAD started, vector"
vector 204 Scenario.node[14].wlan[0].mac rcvdPkFromHl:vector(packetBytes) ETV
attr interpolationmode none
attr source packetReceivedFromUpper
attr title "packets received from higher layer, vector(packetBytes)"
vector 205 Scenario.node[14].wlan[0].mac.queue packetPushed:vector(packetBytes) ETV
attr interpolationmode none
attr title "packet pushed, vector(packetBytes)"
vector 206 Scenario.node[14].wlan[0].mac.queue queueLength:vector ETV
attr autoWarmupFilter false
attr interpolationmode sample-hold
attr source "warmup(count(packetPushed) - count(packetPulled) - count(packetRemoved) - count(packetDropped))"
attr title "queue length, vector"
attr type int
vector 207 Scenario.node[14].wlan[0].mac.queue packetPulled:vector(packetBytes) ETV
attr interpolationmode none
attr title "packet pulled, vector(packetBytes)"
vector 208 Scenario.node[14].wlan[0].mac.queue queueingTime:vector ETV
attr interpolationmode none
attr source queueingTime(packetPulled)
attr title "queueing times, vector"
attr unit s
vector 209 Scenario.node[14].wlan[0].mac sentDownPk:vector(packetBytes) ETV
attr interpolationmode none
attr source packetSentToLower
attr title "packets sent to lower layer, vector(packetBytes)"
vector 210 Scenario.node[15].wlan[0].radio radioMode:vector ETV
attr interpolationmode sample-hold
attr source radioModeChanged
attr title "Radio mode, vector"
vector 211 Scenario.node[15].wlan[0].radio receptionState:vector ETV
attr interpolationmode sample-hold
attr source receptionStateChanged
attr title "Radio reception state, vector"
vector 212 Scenario.node[15].wlan[0].radio transmissionState:vector ETV
attr interpolationmode sample-hold
attr source transmissionStateChanged
attr title "Radio transmission state, vector"
vector 213 Scenario.node[15].ipv6.neighbourDiscovery startDad:vector ETV
attr title "DAD started, vector"
vector 214 Scenario.node[15].wlan[0].mac rcvdPkFromHl:vector(packetBytes) ETV
attr interpolationmode none
attr source packetReceivedFromUpper
attr title "packets received from higher layer, vector(packetBytes)"
vector 215 Scenario.node[15].wlan[0].mac.queue packetPushed:vector(packetBytes) ETV
attr interpolationmode none
attr title "packet pushed, vector(packetBytes)"
vector 216 Scenario.node[15].wlan[0].mac.queue queueLength:vector ETV
attr autoWarmupFilter false
attr interpolationmode sample-hold
attr source "warmup(count(packetPushed) - count(packetPulled) - count(packetRemoved) - count(packetDropped))"
attr title "queue length, vector"
attr type int
vector 217 Scenario.node[15].wlan[0].mac.queue packetPulled:vector(packetBytes) ETV
attr interpolationmode none
attr title "packet pulled, vector(packetBytes)"
vector 218 Scenario.node[15].wlan[0].mac.queue queueingTime:vector ETV
attr interpolationmode none
attr source queueingTime(packetPulled)
attr title "queueing times, vector"
attr unit s
vector 219 Scenario.node[15].wlan[0].mac sentDownPk:vector(packetBytes) ETV
attr interpolationmode none
attr source packetSentToLower
attr title "packets sent to lower layer, vector(packetBytes)"
vector 220 Scenario.node[14].wlan[0].mac passedUpPk:vector(packetBytes) ETV
attr interpolationmode none
attr source packetSentToUpper
attr title "packets passed to higher layer, vector(packetBytes)"
vector 221 Scenario.node[16].wlan[0].radio radioMode:vector ETV
attr interpolationmode sample-hold
attr source radioModeChanged
attr title "Radio mode, vector"
vector 222 Scenario.node[16].wlan[0].radio receptionState:vector ETV
attr interpolationmode sample-hold
attr source receptionStateChanged
attr title "Radio reception state, vector"
vector 223 Scenario.node[16].wlan[0].radio transmissionState:vector ETV
attr interpolationmode sample-hold
attr source transmissionStateChanged
attr title "Radio transmission state, vector"
vector 224 Scenario.node[16].ipv6.neighbourDiscovery startDad:vector ETV
attr title "DAD started, vector"
vector 225 Scenario.node[16].wlan[0].mac rcvdPkFromHl:vector(packetBytes) ETV
attr interpolationmode none
attr source packetReceivedFromUpper
attr title "packets received from higher layer, vector(packetBytes)"
vector 226 Scenario.node[16].wlan[0].mac.queue packetPushed:vector(packetBytes) ETV
attr interpolationmode none
attr title "packet pushed, vector(packetBytes)"
vector 227 Scenario.node[16].wlan[0].mac.queue queueLength:vector ETV
attr autoWarmupFilter false
attr interpolationmode sample-hold
attr source "warmup(count(packetPushed) - count(packetPulled) - count(packetRemoved) - count(packetDropped))"
attr title "queue length, vector"
attr type int
vector 228 Scenario.node[16].wlan[0].mac.queue packetPulled:vector(packetBytes) ETV
attr interpolationmode none
attr title "packet pulled, vector(packetBytes)"
vector 229 Scenario.node[16].wlan[0].mac.queue queueingTime:vector ETV
attr interpolationmode none
attr source queueingTime(packetPulled)
attr title "queueing times, vector"
attr unit s
vector 230 Scenario.node[16].wlan[0].mac sentDownPk:vector(packetBytes) ETV
attr interpolationmode none
attr source packetSentToLower
attr title "packets sent to lower layer, vector(packetBytes)"
vector 231 Scenario.node[16].wlan[0].mac rcvdPkFromLl:vector(packetBytes) ETV
attr interpolationmode none
attr source packetReceivedFromLower
attr title "packets received from lower layer, vector(packetBytes)"
vector 232 Scenario.node[16].wlan[0].mac passedUpPk:vector(packetBytes) ETV
attr interpolationmode none
attr source packetSentToUpper
attr title "packets passed to higher layer, vector(packetBytes)"
vector 233 Scenario.node[17].wlan[0].radio radioMode:vector ETV
attr interpolationmode sample-hold
attr source radioModeChanged
attr title "Radio mode, vector"
vector 234 Scenario.node[17].wlan[0].radio receptionState:vector ETV
attr interpolationmode sample-hold
attr source receptionStateChanged
attr title "Radio reception state, vector"
vector 235 Scenario.node[17].wlan[0].radio transmissionState:vector ETV
attr interpolationmode sample-hold
attr source transmissionStateChanged
attr title "Radio transmission state, vector"
vector 236 Scenario.node[17].wlan[0].mac rcvdPkFromLl:vector(packetBytes) ETV
attr interpolationmode none
attr source packetReceivedFromLower
attr title "packets received from lower layer, vector(packetBytes)"
vector 237 Scenario.node[17].wlan[0].mac passedUpPk:vector(packetBytes) ETV
attr interpolationmode none
attr source packetSentToUpper
attr title "packets passed to higher layer, vector(packetBytes)"
vector 238 Scenario.node[17].ipv6.neighbourDiscovery startDad:vector ETV
attr title "DAD started, vector"
vector 239 Scenario.node[17].wlan[0].mac rcvdPkFromHl:vector(packetBytes) ETV
attr interpolationmode none
attr source packetReceivedFromUpper
attr title "packets received from higher layer, vector(packetBytes)"
vector 240 Scenario.node[17].wlan[0].mac.queue packetPushed:vector(packetBytes) ETV
attr interpolationmode none
attr title "packet pushed, vector(packetBytes)"
vector 241 Scenario.node[17].wlan[0].mac.queue queueLength:vector ETV
attr autoWarmupFilter false
attr interpolationmode sample-hold
attr source "warmup(count(packetPushed) - count(packetPulled) - count(packetRemoved) - count(packetDropped))"
attr title "queue length, vector"
attr type int
vector 242 Scenario.node[17].wlan[0].mac.queue packetPulled:vector(packetBytes) ETV
attr interpolationmode none
attr title "packet pulled, vector(packetBytes)"
vector 243 Scenario.node[17].wlan[0].mac.queue queueingTime:vector ETV
attr interpolationmode none
attr source queueingTime(packetPulled)
attr title "queueing times, vector"
attr unit s
vector 244 Scenario.node[17].wlan[0].mac sentDownPk:vector(packetBytes) ETV
attr interpolationmode none
attr source packetSentToLower
attr title "packets sent to lower layer, vector(packetBytes)"
vector 245 Scenario.node[15].wlan[0].mac rcvdPkFromLl:vector(packetBytes) ETV
attr interpolationmode none
attr source packetReceivedFromLower
attr title "packets received from lower layer, vector(packetBytes)"
vector 246 Scenario.node[15].wlan[0].mac passedUpPk:vector(packetBytes) ETV
attr interpolationmode none
attr source packetSentToUpper
attr title "packets passed to higher layer, vector(packetBytes)"
0	0	0	0
0	0	0	0
0	0	0	4
1	0	0	0
1	0	0	0
1	0	0	4
2	0	0	1
2	8	0.615314705127	3
2	13	0.615710705127	1
2	22	0.726930214893	3
2	27	0.727326214893	1
2	70	1.423655105251	3
2	78	1.424099105251	1
2	130	1.937587409756	3
2	139	1.938079409756	1
2	153	1.983885376212	3
2	160	1.984249376212	1
2	196	2.00042841112	3
2	207	2.00085641112	1
2	234	2.00147682224	3
2	249	2.00190482224	1
2	253	2.001905068834	3
2	269	2.002397068834	1
2	272	2.002397109622	3
2	287	2.003017109622	1
2	290	2.003017356216	3
2	304	2.003637356216	1
2	306	2.003637397004	3
2	316	2.004257397004	1
2	402	2.759053994073	3
2	411	2.759417994073	1
2	465	3.000620443858	3
2	480	3.001240443858	1
2	483	3.001240660182	3
2	497	3.001860660182	1
2	499	3.001860703438	3
2	509	3.002480703438	1
2	526	3.235823831716	3
2	536	3.236267831716	1
2	549	3.274983593537	3
2	559	3.275475593537	1
2	690	4.000620496328	3
2	708	4.001240496328	1
2	710	4.001240677091	3
2	726	4.001860677091	1
2	728	4.001860737256	3
2	740	4.002480737256	1
2	830	4.748591673533	3
2	841	4.749083673533	1
2	928	5.000620554758	3
2	948	5.001240554758	1
2	950	5.001240689667	3
2	968	5.001860689667	1
2	970	5.001860762408	3
2	984	5.002480762408	1
2	1045	5.214442174611	3
2	1057	5.214886174611	1
2	1129	5.891944991558	3
2	1141	5.892436991558	1
2	1157	5.983885470864	3
2	1167	5.984249470864	1
2	1209	6.000620625932	3
2	1229	6.001240625932	1
2	1231	6.001240715385	3
2	1249	6.001860715385	1
2	1251	6.001860813844	3
2	1265	6.002480813844	1
2	1356	6.400774519154	3
2	1368	6.401218519154	1
2	1466	6.759053994073	3
2	1477	6.759417994073	1
2	1543	7.000620709312	3
2	1565	7.001240709312	1
2	1567	7.001240763295	3
2	1587	7.001860763295	1
2	1589	7.001860909664	3
2	1605	7.002480909664	1
2	1621	7.003017356216	3
2	1637	7.003477356216	1
2	1640	7.003477502585	3
2	1663	7.003905502585	2
2	1664	7.003905502585	3
2	1683	7.004301502585	1
2	1732	7.108495408491	3
2	1745	7.108987408491	1
2	1836	7.419564317175	3
2	1849	7.420008317175	1
2	2060	8.000620805568	3
2	2085	8.001240805568	1
2	2087	8.001240837725	3
2	2111	8.001860837725	1
2	2113	8.001861058524	3
2	2133	8.002481058524	1
2	2415	8.779072219235	3
2	2431	8.779516219235	1
2	2523	9.000620906548	3
2	2549	9.001240906548	1
2	2551	9.001240927328	3
2	2576	9.001860927328	1
2	2579	9.00186123773	3
2	2601	9.00248123773	1
2	2660	9.052243582391	3
2	2676	9.052735582391	1
2	3011	9.983885655015	3
2	3026	9.984249655015	1
2	3091	10.000621007874	3
2	3121	10.001241007874	1
2	3123	10.001241022505	3
2	3152	10.001861022505	1
2	3156	10.001861428084	3
2	3181	10.002481428084	1
2	3559	10.705033977369	3
2	3577	10.705525977369	1
2	3599	10.759053994073	3
2	3616	10.759417994073	1
2	3635	10.767446051081	3
2	3653	10.767890051081	1
2	3923	11.00062110937	3
2	3954	11.00124110937	1
2	3956	11.001241120326	3
2	3987	11.001861120326	1
2	3992	11.001861623726	3
2	4018	11.002481623726	1
2	4683	12.000621211364	3
2	4714	12.001241211364	1
2	4717	12.001241219934	3
2	4750	12.001861219934	1
2	4756	12.001861822942	3
2	4783	12.002481822942	1
2	4913	12.367560921792	3
2	4933	12.368052921792	1
2	5138	12.588439281992	3
2	5154	12.588883281992	1
2	5632	13.000621313512	3
2	5663	13.001241313512	1
2	5665	13.001241320443	3
2	5696	13.001861320443	1
2	5709	13.00186202396	3
2	5736	13.00248202396	1
2	5763	13.028182681188	3
2	5780	13.028578681188	1
2	6502	14.002702270364	3
2	6521	14.003146270364	1
2	7438	14.921158128425	3
2	7461	14.921650128425	1
3	0	0	1
3	34	0.91476737191	2
3	37	0.91516337191	1
3	106	1.847251737257	2
3	111	1.847695737257	1
3	178	2	2
3	184	2.000428	1
3	214	2.00085641112	2
3	223	2.00147641112	1
3	335	2.058609644604	2
3	341	2.058973644604	1
3	450	3	2
3	456	3.00062	1
3	599	3.683330506086	2
3	606	3.683774506086	1
3	674	4	2
3	681	4.00062	1
3	875	4.801604929845	2
3	882	4.802048929845	1
3	911	5	2
3	919	5.00062	1
3	1192	6	2
3	1200	6.00062	1
3	1282	6.058609644604	2
3	1290	6.058973644604	1
3	1437	6.74627384846	2
3	1445	6.74671784846	1
3	1525	7	2
3	1534	7.00062	1
3	1690	7.004301502585	2
3	1705	7.004793502585	1
3	1991	7.895948712247	2
3	2001	7.896392712247	1
3	2039	8	2
3	2050	8.00062	1
3	2500	9	2
3	2512	9.00062	1
3	2836	9.562715423525	2
3	2849	9.563159423525	1
3	3066	10	2
3	3080	10.00062	1
3	3204	10.058609644604	2
3	3218	10.058973644604	1
3	3896	11	2
3	3911	11.00062	1
3	4042	11.029026196337	2
3	4057	11.029470196337	1
3	4654	12	2
3	4670	12.00062	1
3	5403	12.907219664891	2
3	5419	12.907663664891	1
3	5599	13	2
3	5616	13.00062	1
3	6458	14	2
3	6477	14.00062	1
3	6980	14.473821113351	2
3	6999	14.474265113351	1
4	0	0	1
4	7	0.61531466721	3
4	10	0.61571066721	1
4	36	0.914767680373	3
4	42	0.915163680373	1
4	108	1.84725204572	3
4	117	1.84769604572	1
4	129	1.9375873588	3
4	134	1.9380793588	1
4	152	1.983885325256	3
4	157	1.984249325256	1
4	180	2.000000308463	3
4	192	2.000428308463	1
4	195	2.000428349251	3
4	204	2.000856349251	1
4	216	2.000856719583	3
4	231	2.001476719583	1
4	233	2.001476760371	3
4	242	2.001904760371	1
4	268	2.002397047753	3
4	280	2.003017047753	1
4	303	2.003637335135	3
4	314	2.004257335135	1
4	337	2.058609953067	3
4	346	2.058973953067	1
4	452	3.000000308463	3
4	462	3.000620308463	1
4	464	3.000620351719	3
4	473	3.001240351719	1
4	496	3.001860611299	3
4	507	3.002480611299	1
4	548	3.274983501398	3
4	554	3.275475501398	1
4	601	3.683330814549	3
4	612	3.683774814549	1
4	676	4.000000308463	3
4	687	4.000620308463	1
4	689	4.000620368628	3
4	700	4.001240368628	1
4	725	4.001860609556	3
4	738	4.002480609556	1
4	829	4.748591523479	3
4	836	4.749083523479	1
4	877	4.801605238308	3
4	888	4.802049238308	1
4	913	5.000000308463	3
4	925	5.000620308463	1
4	927	5.000620381204	3
4	940	5.001240381204	1
4	967	5.001860588854	3
4	982	5.002480588854	1
4	1128	5.891944794572	3
4	1136	5.892436794572	1
4	1156	5.983885273878	3
4	1164	5.984249273878	1
4	1193	6.000000308463	3
4	1201	6.000620308463	1
4	1208	6.000620406922	3
4	1221	6.001240406922	1
4	1248	6.001860594834	3
4	1263	6.002480594834	1
4	1283	6.058609953067	3
4	1291	6.058973953067	1
4	1438	6.746274156923	3
4	1446	6.746718156923	1
4	1526	7.000000308463	3
4	1535	7.000620308463	1
4	1542	7.000620454832	3
4	1557	7.001240454832	1
4	1586	7.001860655184	3
4	1603	7.002480655184	1
4	1636	7.003477248105	3
4	1658	7.003905248105	2
4	1659	7.003905248105	3
4	1680	7.004301248105	1
4	1691	7.004301811048	3
4	1706	7.004793811048	1
4	1731	7.108495154011	3
4	1740	7.108987154011	1
4	1992	7.89594902071	3
4	2002	7.89639302071	1
4	2040	8.000000308463	3
4	2051	8.000620308463	1
4	2058	8.000620529262	3
4	2077	8.001240529262	1
4	2110	8.001860782218	3
4	2131	8.002480782218	1
4	2501	9.000000308463	3
4	2513	9.000620308463	1
4	2520	9.000620618865	3
4	2541	9.001240618865	1
4	2578	9.001860950047	3
4	2599	9.002480950047	1
4	2659	9.052243294708	3
4	2671	9.052735294708	1
4	2837	9.562715731988	3
4	2850	9.563159731988	1
4	3010	9.983885363833	3
4	3023	9.984249363833	1
4	3067	10.000000308463	3
4	3081	10.000620308463	1
4	3088	10.000620714042	3
4	3113	10.001240714042	1
4	3154	10.001861134252	3
4	3179	10.002481134252	1
4	3205	10.058609953067	3
4	3219	10.058973953067	1
4	3558	10.705033681485	3
4	3572	10.705525681485	1
4	3897	11.000000308463	3
4	3912	11.000620308463	1
4	3920	11.000620811863	3
4	3946	11.001240811863	1
4	3989	11.001861326219	3
4	4016	11.002481326219	1
4	4043	11.0290265048	3
4	4058	11.0294705048	1
4	4655	12.000000308463	3
4	4671	12.000620308463	1
4	4681	12.000620911471	3
4	4707	12.001240911471	1
4	4752	12.001861523049	3
4	4781	12.002481523049	1
4	4912	12.367560621899	3
4	4928	12.368052621899	1
4	5404	12.907219973354	3
4	5420	12.907663973354	1
4	5600	13.000000308463	3
4	5617	13.000620308463	1
4	5629	13.00062101198	3
4	5656	13.00124101198	1
4	5703	13.001861722428	3
4	5734	13.002481722428	1
4	6459	14.000000308463	3
4	6478	14.000620308463	1
4	6600	14.056221902143	3
4	6619	14.056713902143	1
4	6981	14.473821421814	3
4	7000	14.474265421814	1
5	0	0	1
5	20	0.72692990643	2
5	23	0.72732590643	1
5	68	1.423654796788	2
5	72	1.424098796788	1
5	248	2.001904760371	2
5	260	2.002396760371	1
5	286	2.003017047753	2
5	297	2.003637047753	1
5	400	2.75905368561	2
5	406	2.75941768561	1
5	479	3.001240351719	2
5	490	3.001860351719	1
5	524	3.235823523253	2
5	530	3.236267523253	1
5	706	4.001240368628	2
5	719	4.001860368628	1
5	946	5.001240381204	2
5	961	5.001860381204	1
5	1043	5.214441866148	2
5	1051	5.214885866148	1
5	1227	6.001240406922	2
5	1242	6.001860406922	1
5	1354	6.400774210691	2
5	1362	6.401218210691	1
5	1464	6.75905368561	2
5	1472	6.75941768561	1
5	1563	7.001240454832	2
5	1580	7.001860454832	1
5	1619	7.003017047753	2
5	1628	7.003477047753	1
5	1834	7.419564008712	2
5	1843	7.420008008712	1
5	2083	8.001240529262	2
5	2104	8.001860529262	1
5	2413	8.779071910772	2
5	2425	8.779515910772	1
5	2547	9.001240618865	2
5	2570	9.001860618865	1
5	3119	10.001240714042	2
5	3146	10.001860714042	1
5	3597	10.75905368561	2
5	3611	10.75941768561	1
5	3633	10.767445742618	2
5	3647	10.767889742618	1
5	3952	11.001240811863	2
5	3981	11.001860811863	1
5	4713	12.001240911471	2
5	4744	12.001860911471	1
5	5137	12.588438973529	2
5	5153	12.588882973529	1
5	5662	13.00124101198	2
5	5695	13.00186101198	1
5	6501	14.002701961901	2
5	6520	14.003145961901	1
6	2	0.5	0
6	2	0.5	0
6	2	0.5	4
7	2	0.5	1
7	21	0.726930061173	3
7	24	0.727326061173	1
7	35	0.91476756457	3
7	38	0.91516356457	1
7	69	1.423654949355	3
7	73	1.424098949355	1
7	107	1.847251937036	3
7	112	1.847695937036	1
7	179	2.00000020556	3
7	185	2.00042820556	1
7	215	2.00085661668	3
7	224	2.00147661668	1
7	252	2.001904904062	3
7	261	2.002396904062	1
7	289	2.003017191444	3
7	298	2.003637191444	1
7	336	2.058609850164	3
7	342	2.058973850164	1
7	401	2.759053822873	3
7	407	2.759417822873	1
7	451	3.000000221929	3
7	457	3.000620221929	1
7	482	3.001240481509	3
7	491	3.001860481509	1
7	525	3.235823653043	3
7	531	3.236267653043	1
7	600	3.683330738517	3
7	607	3.683774738517	1
7	675	4.000000248164	3
7	682	4.000620248164	1
7	707	4.001240489092	3
7	720	4.001860489092	1
7	876	4.801605191752	3
7	883	4.802049191752	1
7	912	5.000000277379	3
7	920	5.000620277379	1
7	947	5.001240485029	3
7	962	5.001860485029	1
7	1044	5.214441969973	3
7	1052	5.214885969973	1
7	1194	6.000000312966	3
7	1203	6.000620312966	1
7	1228	6.001240500878	3
7	1243	6.001860500878	1
7	1284	6.05860995757	3
7	1294	6.05897395757	1
7	1355	6.400774304647	3
7	1363	6.401218304647	1
7	1439	6.746274181474	3
7	1450	6.746718181474	1
7	1465	6.759053780185	3
7	1473	6.759417780185	1
7	1527	7.000000354656	3
7	1537	7.000620354656	1
7	1564	7.001240555008	3
7	1581	7.001860555008	1
7	1620	7.003017147929	3
7	1629	7.003477147929	1
7	1692	7.004301857241	3
7	1709	7.004793857241	1
7	1835	7.419564108888	3
7	1844	7.420008108888	1
7	1993	7.895949090186	3
7	2006	7.896393090186	1
7	2041	8.000000402784	3
7	2053	8.000620402784	1
7	2084	8.00124065574	3
7	2105	8.00186065574	1
7	2414	8.779072055861	3
7	2426	8.779516055861	1
7	2502	9.000000453274	3
7	2515	9.000620453274	1
7	2548	9.001240784456	3
7	2571	9.001860784456	1
7	2838	9.562715902107	3
7	2854	9.563159902107	1
7	3068	10.000000503937	3
7	3083	10.000620503937	1
7	3120	10.001240924147	3
7	3147	10.001860924147	1
7	3206	10.058610148541	3
7	3222	10.058974148541	1
7	3598	10.759053919036	3
7	3612	10.759417919036	1
7	3634	10.767445976044	3
7	3648	10.767889976044	1
7	3898	11.000000554685	3
7	3914	11.000620554685	1
7	3953	11.001241069041	3
7	3982	11.001861069041	1
7	4044	11.029026751022	3
7	4062	11.029470751022	1
7	4656	12.000000605682	3
7	4673	12.000620605682	1
7	4716	12.00124121726	3
7	4745	12.00186121726	1
7	5139	12.58843930399	3
7	5158	12.58888330399	1
7	5405	12.907220296137	3
7	5424	12.907664296137	1
7	5602	13.000000656756	3
7	5621	13.000620656756	1
7	5667	13.001241367204	3
7	5698	13.001861367204	1
7	6503	14.002702361677	3
7	6525	14.003146361677	1
7	6785	14.301570637671	3
7	6807	14.302062637671	1
7	6833	14.4047252131	3
7	6855	14.4050892131	1
8	2	0.5	1
8	6	0.615314512467	2
8	9	0.615710512467	1
8	128	1.937587209977	2
8	133	1.938079209977	1
8	151	1.983885176433	2
8	156	1.984249176433	1
8	191	2.00042820556	2
8	203	2.00085620556	1
8	230	2.00147661668	2
8	241	2.00190461668	1
8	267	2.002396904062	2
8	279	2.003016904062	1
8	302	2.003637191444	2
8	313	2.004257191444	1
8	461	3.000620221929	2
8	472	3.001240221929	1
8	495	3.001860481509	2
8	506	3.002480481509	1
8	547	3.274983371608	2
8	553	3.275475371608	1
8	686	4.000620248164	2
8	699	4.001240248164	1
8	724	4.001860489092	2
8	737	4.002480489092	1
8	828	4.748591411626	2
8	835	4.749083411626	1
8	924	5.000620277379	2
8	939	5.001240277379	1
8	966	5.001860485029	2
8	981	5.002480485029	1
8	1127	5.891944697127	2
8	1135	5.892436697127	1
8	1155	5.983885176433	2
8	1163	5.984249176433	1
8	1207	6.000620312966	2
8	1220	6.001240312966	1
8	1247	6.001860500878	2
8	1262	6.002480500878	1
8	1541	7.000620354656	2
8	1556	7.001240354656	1
8	1585	7.001860555008	2
8	1602	7.002480555008	1
8	1635	7.003477147929	2
8	1656	7.003905147929	1
8	1657	7.003905147929	2
8	1679	7.004301147929	1
8	1730	7.108495053835	2
8	1739	7.108987053835	1
8	2057	8.000620402784	2
8	2076	8.001240402784	1
8	2109	8.00186065574	2
8	2130	8.00248065574	1
8	2519	9.000620453274	2
8	2540	9.001240453274	1
8	2575	9.001860784456	2
8	2598	9.002480784456	1
8	2658	9.052243129117	2
8	2670	9.052735129117	1
8	3009	9.983885176433	2
8	3022	9.984249176433	1
8	3087	10.000620503937	2
8	3112	10.001240503937	1
8	3151	10.001860924147	2
8	3178	10.002480924147	1
8	3557	10.705033448059	2
8	3571	10.705525448059	1
8	3918	11.000620554685	2
8	3945	11.001240554685	1
8	3986	11.001861069041	2
8	4015	11.002481069041	1
8	4677	12.000620605682	2
8	4706	12.001240605682	1
8	4749	12.00186121726	2
8	4780	12.00248121726	1
8	4911	12.36756031611	2
8	4927	12.36805231611	1
8	5625	13.000620656756	2
8	5655	13.001240656756	1
8	5702	13.001861367204	2
8	5733	13.002481367204	1
8	6599	14.056221502367	2
8	6618	14.056713502367	1
9	3	0.615314512467	1
10	5	0.615314512467	64
10	127	1.937587209977	88
10	150	1.983885176433	56
10	190	2.00042820556	72
10	229	2.00147661668	72
10	266	2.002396904062	120
10	301	2.003637191444	120
10	460	3.000620221929	120
10	494	3.001860481509	120
10	546	3.274983371608	88
10	685	4.000620248164	120
10	723	4.001860489092	120
10	827	4.748591411626	88
10	923	5.000620277379	120
10	965	5.001860485029	120
10	1126	5.891944697127	88
10	1154	5.983885176433	56
10	1206	6.000620312966	120
10	1246	6.001860500878	120
10	1540	7.000620354656	120
10	1584	7.001860555008	120
10	1634	7.003477147929	72
10	1655	7.003637191444	64
10	1729	7.108495053835	88
10	2056	8.000620402784	120
10	2108	8.00186065574	120
10	2518	9.000620453274	120
10	2574	9.001860784456	120
10	2657	9.052243129117	88
10	3008	9.983885176433	56
10	3086	10.000620503937	120
10	3150	10.001860924147	120
10	3556	10.705033448059	88
10	3917	11.000620554685	120
10	3985	11.001861069041	120
10	4676	12.000620605682	120
10	4748	12.00186121726	120
10	4910	12.36756031611	88
10	5624	13.000620656756	120
10	5701	13.001861367204	120
10	6598	14.056221502367	88
11	5	0.615314512467	64
11	127	1.937587209977	88
11	150	1.983885176433	56
11	190	2.00042820556	72
11	229	2.00147661668	72
11	266	2.002396904062	120
11	301	2.003637191444	120
11	460	3.000620221929	120
11	494	3.001860481509	120
11	546	3.274983371608	88
11	685	4.000620248164	120
11	723	4.001860489092	120
11	827	4.748591411626	88
11	923	5.000620277379	120
11	965	5.001860485029	120
11	1126	5.891944697127	88
11	1154	5.983885176433	56
11	1206	6.000620312966	120
11	1246	6.001860500878	120
11	1540	7.000620354656	120
11	1584	7.001860555008	120
11	1634	7.003477147929	72
11	1655	7.003637191444	64
11	1729	7.108495053835	88
11	2056	8.000620402784	120
11	2108	8.00186065574	120
11	2518	9.000620453274	120
11	2574	9.001860784456	120
11	2657	9.052243129117	88
11	3008	9.983885176433	56
11	3086	10.000620503937	120
11	3150	10.001860924147	120
11	3556	10.705033448059	88
11	3917	11.000620554685	120
11	3985	11.001861069041	120
11	4676	12.000620605682	120
11	4748	12.00186121726	120
11	4910	12.36756031611	88
11	5624	13.000620656756	120
11	5701	13.001861367204	120
11	6598	14.056221502367	88
12	5	0.615314512467	1
12	5	0.615314512467	0
12	127	1.937587209977	1
12	127	1.937587209977	0
12	150	1.983885176433	1
12	150	1.983885176433	0
12	190	2.00042820556	1
12	190	2.00042820556	0
12	229	2.00147661668	1
12	229	2.00147661668	0
12	266	2.002396904062	1
12	266	2.002396904062	0
12	301	2.003637191444	1
12	301	2.003637191444	0
12	460	3.000620221929	1
12	460	3.000620221929	0
12	494	3.001860481509	1
12	494	3.001860481509	0
12	546	3.274983371608	1
12	546	3.274983371608	0
12	685	4.000620248164	1
12	685	4.000620248164	0
12	723	4.001860489092	1
12	723	4.001860489092	0
12	827	4.748591411626	1
12	827	4.748591411626	0
12	923	5.000620277379	1
12	923	5.000620277379	0
12	965	5.001860485029	1
12	965	5.001860485029	0
12	1126	5.891944697127	1
12	1126	5.891944697127	0
12	1154	5.983885176433	1
12	1154	5.983885176433	0
12	1206	6.000620312966	1
12	1206	6.000620312966	0
12	1246	6.001860500878	1
12	1246	6.001860500878	0
12	1540	7.000620354656	1
12	1540	7.000620354656	0
12	1584	7.001860555008	1
12	1584	7.001860555008	0
12	1634	7.003477147929	1
12	1634	7.003477147929	0
12	1655	7.003637191444	1
12	1656	7.003905147929	0
12	1729	7.108495053835	1
12	1729	7.108495053835	0
12	2056	8.000620402784	1
12	2056	8.000620402784	0
12	2108	8.00186065574	1
12	2108	8.00186065574	0
12	2518	9.000620453274	1
12	2518	9.000620453274	0
12	2574	9.001860784456	1
12	2574	9.001860784456	0
12	2657	9.052243129117	1
12	2657	9.052243129117	0
12	3008	9.983885176433	1
12	3008	9.983885176433	0
12	3086	10.000620503937	1
12	3086	10.000620503937	0
12	3150	10.001860924147	1
12	3150	10.001860924147	0
12	3556	10.705033448059	1
12	3556	10.705033448059	0
12	3917	11.000620554685	1
12	3917	11.000620554685	0
12	3985	11.001861069041	1
12	3985	11.001861069041	0
12	4676	12.000620605682	1
12	4676	12.000620605682	0
12	4748	12.00186121726	1
12	4748	12.00186121726	0
12	4910	12.36756031611	1
12	4910	12.36756031611	0
12	5624	13.000620656756	1
12	5624	13.000620656756	0
12	5701	13.001861367204	1
12	5701	13.001861367204	0
12	6598	14.056221502367	1
12	6598	14.056221502367	0
13	5	0.615314512467	64
13	127	1.937587209977	88
13	150	1.983885176433	56
13	190	2.00042820556	72
13	229	2.00147661668	72
13	266	2.002396904062	120
13	301	2.003637191444	120
13	460	3.000620221929	120
13	494	3.001860481509	120
13	546	3.274983371608	88
13	685	4.000620248164	120
13	723	4.001860489092	120
13	827	4.748591411626	88
13	923	5.000620277379	120
13	965	5.001860485029	120
13	1126	5.891944697127	88
13	1154	5.983885176433	56
13	1206	6.000620312966	120
13	1246	6.001860500878	120
13	1540	7.000620354656	120
13	1584	7.001860555008	120
13	1634	7.003477147929	72
13	1656	7.003905147929	64
13	1729	7.108495053835	88
13	2056	8.000620402784	120
13	2108	8.00186065574	120
13	2518	9.000620453274	120
13	2574	9.001860784456	120
13	2657	9.052243129117	88
13	3008	9.983885176433	56
13	3086	10.000620503937	120
13	3150	10.001860924147	120
13	3556	10.705033448059	88
13	3917	11.000620554685	120
13	3985	11.001861069041	120
13	4676	12.000620605682	120
13	4748	12.00186121726	120
13	4910	12.36756031611	88
13	5624	13.000620656756	120
13	5701	13.001861367204	120
13	6598	14.056221502367	88
14	5	0.615314512467	0
14	127	1.937587209977	0
14	150	1.983885176433	0
14	190	2.00042820556	0
14	229	2.00147661668	0
14	266	2.002396904062	0
14	301	2.003637191444	0
14	460	3.000620221929	0
14	494	3.001860481509	0
14	546	3.274983371608	0
14	685	4.000620248164	0
14	723	4.001860489092	0
14	827	4.748591411626	0
14	923	5.000620277379	0
14	965	5.001860485029	0
14	1126	5.891944697127	0
14	1154	5.983885176433	0
14	1206	6.000620312966	0
14	1246	6.001860500878	0
14	1540	7.000620354656	0
14	1584	7.001860555008	0
14	1634	7.003477147929	0
14	1656	7.003905147929	0.000267956485
14	1729	7.108495053835	0
14	2056	8.000620402784	0
14	2108	8.00186065574	0
14	2518	9.000620453274	0
14	2574	9.001860784456	0
14	2657	9.052243129117	0
14	3008	9.983885176433	0
14	3086	10.000620503937	0
14	3150	10.001860924147	0
14	3556	10.705033448059	0
14	3917	11.000620554685	0
14	3985	11.001861069041	0
14	4676	12.000620605682	0
14	4748	12.00186121726	0
14	4910	12.36756031611	0
14	5624	13.000620656756	0
14	5701	13.001861367204	0
14	6598	14.056221502367	0
15	5	0.615314512467	87
15	127	1.937587209977	111
15	150	1.983885176433	79
15	190	2.00042820556	95
15	229	2.00147661668	95
15	266	2.002396904062	143
15	301	2.003637191444	143
15	460	3.000620221929	143
15	494	3.001860481509	143
15	546	3.274983371608	111
15	685	4.000620248164	143
15	723	4.001860489092	143
15	827	4.748591411626	111
15	923	5.000620277379	143
15	965	5.001860485029	143
15	1126	5.891944697127	111
15	1154	5.983885176433	79
15	1206	6.000620312966	143
15	1246	6.001860500878	143
15	1540	7.000620354656	143
15	1584	7.001860555008	143
15	1634	7.003477147929	95
15	1656	7.003905147929	87
15	1729	7.108495053835	111
15	2056	8.000620402784	143
15	2108	8.00186065574	143
15	2518	9.000620453274	143
15	2574	9.001860784456	143
15	2657	9.052243129117	111
15	3008	9.983885176433	79
15	3086	10.000620503937	143
15	3150	10.001860924147	143
15	3556	10.705033448059	111
15	3917	11.000620554685	143
15	3985	11.001861069041	143
15	4676	12.000620605682	143
15	4748	12.00186121726	143
15	4910	12.36756031611	111
15	5624	13.000620656756	143
15	5701	13.001861367204	143
15	6598	14.056221502367	111
16	11	0.61571066721	87
16	43	0.915163680373	87
16	118	1.84769604572	99
16	135	1.9380793588	111
16	158	1.984249325256	79
16	193	2.000428308463	95
16	205	2.000856349251	95
16	232	2.001476719583	143
16	243	2.001904760371	95
16	281	2.003017047753	143
16	315	2.004257335135	143
16	347	2.058973953067	79
16	463	3.000620308463	143
16	474	3.001240351719	143
16	508	3.002480611299	143
16	555	3.275475501398	111
16	613	3.683774814549	99
16	688	4.000620308463	143
16	701	4.001240368628	143
16	739	4.002480609556	143
16	837	4.749083523479	111
16	889	4.802049238308	99
16	926	5.000620308463	143
16	941	5.001240381204	143
16	983	5.002480588854	143
16	1137	5.892436794572	111
16	1165	5.984249273878	79
16	1202	6.000620308463	143
16	1222	6.001240406922	143
16	1264	6.002480594834	143
16	1292	6.058973953067	79
16	1447	6.746718156923	99
16	1536	7.000620308463	143
16	1558	7.001240454832	143
16	1604	7.002480655184	143
16	1660	7.003905248105	95
16	1681	7.004301248105	87
16	1707	7.004793811048	111
16	1741	7.108987154011	111
16	2003	7.89639302071	99
16	2052	8.000620308463	143
16	2078	8.001240529262	143
16	2132	8.002480782218	143
16	2514	9.000620308463	143
16	2542	9.001240618865	143
16	2600	9.002480950047	143
16	2672	9.052735294708	111
16	2851	9.563159731988	99
16	3024	9.984249363833	79
16	3082	10.000620308463	143
16	3114	10.001240714042	143
16	3180	10.002481134252	143
16	3220	10.058973953067	79
16	3573	10.705525681485	111
16	3913	11.000620308463	143
16	3947	11.001240811863	143
16	4017	11.002481326219	143
16	4059	11.0294705048	99
16	4672	12.000620308463	143
16	4708	12.001240911471	143
16	4782	12.002481523049	143
16	4929	12.368052621899	111
16	5421	12.907663973354	99
16	5618	13.000620308463	143
16	5657	13.00124101198	143
16	5735	13.002481722428	143
16	6479	14.000620308463	143
16	6620	14.056713902143	111
16	7001	14.474265421814	99
17	11	0.61571066721	64
17	43	0.915163680373	64
17	118	1.84769604572	76
17	135	1.9380793588	88
17	158	1.984249325256	56
17	193	2.000428308463	72
17	205	2.000856349251	72
17	243	2.001904760371	72
17	281	2.003017047753	120
17	347	2.058973953067	56
17	474	3.001240351719	120
17	555	3.275475501398	88
17	613	3.683774814549	76
17	701	4.001240368628	120
17	837	4.749083523479	88
17	889	4.802049238308	76
17	941	5.001240381204	120
17	1137	5.892436794572	88
17	1165	5.984249273878	56
17	1222	6.001240406922	120
17	1292	6.058973953067	56
17	1447	6.746718156923	76
17	1558	7.001240454832	120
17	1660	7.003905248105	72
17	1681	7.004301248105	64
17	1707	7.004793811048	88
17	1741	7.108987154011	88
17	2003	7.89639302071	76
17	2078	8.001240529262	120
17	2542	9.001240618865	120
17	2672	9.052735294708	88
17	2851	9.563159731988	76
17	3024	9.984249363833	56
17	3114	10.001240714042	120
17	3220	10.058973953067	56
17	3573	10.705525681485	88
17	3947	11.001240811863	120
17	4059	11.0294705048	76
17	4708	12.001240911471	120
17	4929	12.368052621899	88
17	5421	12.907663973354	76
17	5657	13.00124101198	120
17	6620	14.056713902143	88
17	7001	14.474265421814	76
18	14	0.615710705127	87
18	28	0.727326214893	87
18	79	1.424099105251	99
18	140	1.938079409756	111
18	161	1.984249376212	79
18	208	2.00085641112	95
18	250	2.00190482224	95
18	270	2.002397068834	111
18	288	2.003017109622	143
18	305	2.003637356216	143
18	317	2.004257397004	143
18	412	2.759417994073	79
18	481	3.001240443858	143
18	498	3.001860660182	143
18	510	3.002480703438	143
18	537	3.236267831716	99
18	560	3.275475593537	111
18	709	4.001240496328	143
18	727	4.001860677091	143
18	741	4.002480737256	143
18	842	4.749083673533	111
18	949	5.001240554758	143
18	969	5.001860689667	143
18	985	5.002480762408	143
18	1058	5.214886174611	99
18	1142	5.892436991558	111
18	1168	5.984249470864	79
18	1230	6.001240625932	143
18	1250	6.001860715385	143
18	1266	6.002480813844	143
18	1369	6.401218519154	99
18	1478	6.759417994073	79
18	1566	7.001240709312	143
18	1588	7.001860763295	143
18	1606	7.002480909664	143
18	1638	7.003477356216	103
18	1665	7.003905502585	95
18	1684	7.004301502585	87
18	1746	7.108987408491	111
18	1850	7.420008317175	99
18	2086	8.001240805568	143
18	2112	8.001860837725	143
18	2134	8.002481058524	143
18	2432	8.779516219235	99
18	2550	9.001240906548	143
18	2577	9.001860927328	143
18	2602	9.00248123773	143
18	2677	9.052735582391	111
18	3027	9.984249655015	79
18	3122	10.001241007874	143
18	3153	10.001861022505	143
18	3182	10.002481428084	143
18	3578	10.705525977369	111
18	3617	10.759417994073	79
18	3654	10.767890051081	99
18	3955	11.00124110937	143
18	3988	11.001861120326	143
18	4019	11.002481623726	143
18	4715	12.001241211364	143
18	4751	12.001861219934	143
18	4784	12.002481822942	143
18	4934	12.368052921792	111
18	5155	12.588883281992	99
18	5664	13.001241313512	143
18	5697	13.001861320443	143
18	5737	13.00248202396	143
18	5781	13.028578681188	87
18	6522	14.003146270364	99
18	7462	14.921650128425	111
19	14	0.615710705127	64
19	28	0.727326214893	64
19	79	1.424099105251	76
19	140	1.938079409756	88
19	161	1.984249376212	56
19	208	2.00085641112	72
19	250	2.00190482224	72
19	270	2.002397068834	88
19	317	2.004257397004	120
19	412	2.759417994073	56
19	510	3.002480703438	120
19	537	3.236267831716	76
19	560	3.275475593537	88
19	741	4.002480737256	120
19	842	4.749083673533	88
19	985	5.002480762408	120
19	1058	5.214886174611	76
19	1142	5.892436991558	88
19	1168	5.984249470864	56
19	1266	6.002480813844	120
19	1369	6.401218519154	76
19	1478	6.759417994073	56
19	1606	7.002480909664	120
19	1638	7.003477356216	80
19	1665	7.003905502585	72
19	1684	7.004301502585	64
19	1746	7.108987408491	88
19	1850	7.420008317175	76
19	2134	8.002481058524	120
19	2432	8.779516219235	76
19	2602	9.00248123773	120
19	2677	9.052735582391	88
19	3027	9.984249655015	56
19	3182	10.002481428084	120
19	3578	10.705525977369	88
19	3617	10.759417994073	56
19	3654	10.767890051081	76
19	4019	11.002481623726	120
19	4784	12.002481822942	120
19	4934	12.368052921792	88
19	5155	12.588883281992	76
19	5737	13.00248202396	120
19	5781	13.028578681188	64
19	6522	14.003146270364	76
19	7462	14.921650128425	88
20	17	0.72692990643	1
21	19	0.72692990643	64
21	67	1.423654796788	76
21	247	2.001904760371	88
21	285	2.003017047753	120
21	399	2.75905368561	56
21	478	3.001240351719	120
21	523	3.235823523253	76
21	705	4.001240368628	120
21	945	5.001240381204	120
21	1042	5.214441866148	76
21	1226	6.001240406922	120
21	1353	6.400774210691	76
21	1463	6.75905368561	56
21	1562	7.001240454832	120
21	1618	7.003017047753	80
21	1833	7.419564008712	76
21	2082	8.001240529262	120
21	2412	8.779071910772	76
21	2546	9.001240618865	120
21	3118	10.001240714042	120
21	3596	10.75905368561	56
21	3632	10.767445742618	76
21	3951	11.001240811863	120
21	4712	12.001240911471	120
21	5136	12.588438973529	76
21	5661	13.00124101198	120
21	6500	14.002701961901	76
22	19	0.72692990643	64
22	67	1.423654796788	76
22	247	2.001904760371	88
22	285	2.003017047753	120
22	399	2.75905368561	56
22	478	3.001240351719	120
22	523	3.235823523253	76
22	705	4.001240368628	120
22	945	5.001240381204	120
22	1042	5.214441866148	76
22	1226	6.001240406922	120
22	1353	6.400774210691	76
22	1463	6.75905368561	56
22	1562	7.001240454832	120
22	1618	7.003017047753	80
22	1833	7.419564008712	76
22	2082	8.001240529262	120
22	2412	8.779071910772	76
22	2546	9.001240618865	120
22	3118	10.001240714042	120
22	3596	10.75905368561	56
22	3632	10.767445742618	76
22	3951	11.001240811863	120
22	4712	12.001240911471	120
22	5136	12.588438973529	76
22	5661	13.00124101198	120
22	6500	14.002701961901	76
23	19	0.72692990643	1
23	19	0.72692990643	0
23	67	1.423654796788	1
23	67	1.423654796788	0
23	247	2.001904760371	1
23	247	2.001904760371	0
23	285	2.003017047753	1
23	285	2.003017047753	0
23	399	2.75905368561	1
23	399	2.75905368561	0
23	478	3.001240351719	1
23	478	3.001240351719	0
23	523	3.235823523253	1
23	523	3.235823523253	0
23	705	4.001240368628	1
23	705	4.001240368628	0
23	945	5.001240381204	1
23	945	5.001240381204	0
23	1042	5.214441866148	1
23	1042	5.214441866148	0
23	1226	6.001240406922	1
23	1226	6.001240406922	0
23	1353	6.400774210691	1
23	1353	6.400774210691	0
23	1463	6.75905368561	1
23	1463	6.75905368561	0
23	1562	7.001240454832	1
23	1562	7.001240454832	0
23	1618	7.003017047753	1
23	1618	7.003017047753	0
23	1833	7.419564008712	1
23	1833	7.419564008712	0
23	2082	8.001240529262	1
23	2082	8.001240529262	0
23	2412	8.779071910772	1
23	2412	8.779071910772	0
23	2546	9.001240618865	1
23	2546	9.001240618865	0
23	3118	10.001240714042	1
23	3118	10.001240714042	0
23	3596	10.75905368561	1
23	3596	10.75905368561	0
23	3632	10.767445742618	1
23	3632	10.767445742618	0
23	3951	11.001240811863	1
23	3951	11.001240811863	0
23	4712	12.001240911471	1
23	4712	12.001240911471	0
23	5136	12.588438973529	1
23	5136	12.588438973529	0
23	5661	13.00124101198	1
23	5661	13.00124101198	0
23	6500	14.002701961901	1
23	6500	14.002701961901	0
24	19	0.72692990643	64
24	67	1.423654796788	76
24	247	2.001904760371	88
24	285	2.003017047753	120
24	399	2.75905368561	56
24	478	3.001240351719	120
24	523	3.235823523253	76
24	705	4.001240368628	120
24	945	5.001240381204	120
24	1042	5.214441866148	76
24	1226	6.001240406922	120
24	1353	6.400774210691	76
24	1463	6.75905368561	56
24	1562	7.001240454832	120
24	1618	7.003017047753	80
24	1833	7.419564008712	76
24	2082	8.001240529262	120
24	2412	8.779071910772	76
24	2546	9.001240618865	120
24	3118	10.001240714042	120
24	3596	10.75905368561	56
24	3632	10.767445742618	76
24	3951	11.001240811863	120
24	4712	12.001240911471	120
24	5136	12.588438973529	76
24	5661	13.00124101198	120
24	6500	14.002701961901	76
25	19	0.72692990643	0
25	67	1.423654796788	0
25	247	2.001904760371	0
25	285	2.003017047753	0
25	399	2.75905368561	0
25	478	3.001240351719	0
25	523	3.235823523253	0
25	705	4.001240368628	0
25	945	5.001240381204	0
25	1042	5.214441866148	0
25	1226	6.001240406922	0
25	1353	6.400774210691	0
25	1463	6.75905368561	0
[...]
123	4881	12.271088524948	56
123	4980	12.376903543927	56
123	5032	12.388329298215	88
123	5256	12.798796267429	88
123	6016	13.492855722345	88
123	6139	13.636408408747	88
123	6206	13.706312497295	88
123	6348	13.86294371105	88
123	7055	14.493432992339	88
123	7338	14.811424669116	88
123	7405	14.865126361387	56
124	2036	8	0
124	2036	8	0
124	2036	8	4
125	2036	8	1
125	4324	11.511756948869	3
125	4344	11.512152948869	1
125	5449	12.941711523879	3
125	5468	12.942203523879	1
125	6237	13.712799370812	3
125	6258	13.713163370812	1
125	6601	14.056222103822	3
125	6624	14.056714103822	1
125	7261	14.806814074195	3
125	7284	14.807306074195	1
126	2036	8	1
126	2153	8.051272875839	2
126	2164	8.051668875839	1
126	2696	9.210382561665	2
126	2708	9.210874561665	1
126	3499	10.404724611645	2
126	3513	10.405088611645	1
126	3673	10.845441438723	2
126	3687	10.845933438723	1
126	4538	11.859013080597	2
126	4554	11.859505080597	1
126	5802	13.218457549578	2
126	5819	13.218949549578	1
126	6783	14.301570036216	2
126	6802	14.302062036216	1
126	6831	14.404724611645	2
126	6850	14.405088611645	1
127	2150	8.051272875839	1
128	2152	8.051272875839	64
128	2695	9.210382561665	88
128	3498	10.404724611645	56
128	3672	10.845441438723	88
128	4537	11.859013080597	88
128	5801	13.218457549578	88
128	6782	14.301570036216	88
128	6830	14.404724611645	56
129	2152	8.051272875839	64
129	2695	9.210382561665	88
129	3498	10.404724611645	56
129	3672	10.845441438723	88
129	4537	11.859013080597	88
129	5801	13.218457549578	88
129	6782	14.301570036216	88
129	6830	14.404724611645	56
130	2152	8.051272875839	1
130	2152	8.051272875839	0
130	2695	9.210382561665	1
130	2695	9.210382561665	0
130	3498	10.404724611645	1
130	3498	10.404724611645	0
130	3672	10.845441438723	1
130	3672	10.845441438723	0
130	4537	11.859013080597	1
130	4537	11.859013080597	0
130	5801	13.218457549578	1
130	5801	13.218457549578	0
130	6782	14.301570036216	1
130	6782	14.301570036216	0
130	6830	14.404724611645	1
130	6830	14.404724611645	0
131	2152	8.051272875839	64
131	2695	9.210382561665	88
131	3498	10.404724611645	56
131	3672	10.845441438723	88
131	4537	11.859013080597	88
131	5801	13.218457549578	88
131	6782	14.301570036216	88
131	6830	14.404724611645	56
132	2152	8.051272875839	0
132	2695	9.210382561665	0
132	3498	10.404724611645	0
132	3672	10.845441438723	0
132	4537	11.859013080597	0
132	5801	13.218457549578	0
132	6782	14.301570036216	0
132	6830	14.404724611645	0
133	2152	8.051272875839	87
133	2695	9.210382561665	111
133	3498	10.404724611645	79
133	3672	10.845441438723	111
133	4537	11.859013080597	111
133	5801	13.218457549578	111
133	6782	14.301570036216	111
133	6830	14.404724611645	79
134	2284	8.5	0
134	2284	8.5	0
134	2284	8.5	4
135	2284	8.5	1
135	4323	11.511756937687	3
135	4341	11.512152937687	1
135	5448	12.941711488375	3
135	5464	12.942203488375	1
135	6180	13.705820591699	3
135	6213	13.706312591699	1
135	6236	13.712799284807	3
135	6254	13.713163284807	1
135	7260	14.806813966219	3
135	7280	14.807305966219	1
135	7376	14.864762413971	3
135	7408	14.865126413971	1
136	2284	8.5	1
136	2321	8.609113232023	2
136	2333	8.609509232023	1
136	2949	9.825047227554	2
136	2962	9.825539227554	1
136	2979	9.891964245611	2
136	2992	9.892328245611	1
136	3839	10.984016814036	2
136	3853	10.984508814036	1
136	5281	12.821961720707	2
136	5297	12.822453720707	1
136	6379	13.891964245611	2
136	6397	13.892328245611	1
136	6551	14.038783853874	2
136	6570	14.039275853874	1
137	2318	8.609113232023	1
138	2320	8.609113232023	64
138	2948	9.825047227554	88
138	2978	9.891964245611	56
138	3838	10.984016814036	88
138	5280	12.821961720707	88
138	6378	13.891964245611	56
138	6550	14.038783853874	88
139	2320	8.609113232023	64
139	2948	9.825047227554	88
139	2978	9.891964245611	56
139	3838	10.984016814036	88
139	5280	12.821961720707	88
139	6378	13.891964245611	56
139	6550	14.038783853874	88
140	2320	8.609113232023	1
140	2320	8.609113232023	0
140	2948	9.825047227554	1
140	2948	9.825047227554	0
140	2978	9.891964245611	1
140	2978	9.891964245611	0
140	3838	10.984016814036	1
140	3838	10.984016814036	0
140	5280	12.821961720707	1
140	5280	12.821961720707	0
140	6378	13.891964245611	1
140	6378	13.891964245611	0
140	6550	14.038783853874	1
140	6550	14.038783853874	0
141	2320	8.609113232023	64
141	2948	9.825047227554	88
141	2978	9.891964245611	56
141	3838	10.984016814036	88
141	5280	12.821961720707	88
141	6378	13.891964245611	56
141	6550	14.038783853874	88
142	2320	8.609113232023	0
142	2948	9.825047227554	0
142	2978	9.891964245611	0
142	3838	10.984016814036	0
142	5280	12.821961720707	0
142	6378	13.891964245611	0
142	6550	14.038783853874	0
143	2320	8.609113232023	87
143	2948	9.825047227554	111
143	2978	9.891964245611	79
143	3838	10.984016814036	111
143	5280	12.821961720707	111
143	6378	13.891964245611	79
143	6550	14.038783853874	111
144	2832	9.5	0
144	2832	9.5	0
144	2832	9.5	4
145	2832	9.5	1
145	2911	9.708612089121	3
145	2924	9.709104089121	1
145	3306	10.150496958272	3
145	3320	10.150988958272	1
145	3354	10.169477491284	3
145	3371	10.169969491284	1
145	3430	10.20242608467	3
145	3446	10.20282208467	1
145	3706	10.864761945585	3
145	3720	10.865125945585	1
145	4087	11.288679862007	3
145	4102	11.289171862007	1
145	4172	11.332122237945	3
145	4187	11.332614237945	1
145	4416	11.656329990334	3
145	4435	11.656821990334	1
145	4579	11.94782295468	3
145	4598	11.94831495468	1
145	4865	12.270724863181	3
145	4884	12.271088863181	1
145	4955	12.376539438729	3
145	4971	12.376903438729	1
145	5007	12.387836959453	3
145	5023	12.388328959453	1
145	5093	12.553786982626	3
145	5118	12.554278982626	1
145	5184	12.707549282426	3
145	5209	12.707913282426	1
145	5231	12.79830417075	3
145	5247	12.79879617075	1
145	5364	12.905536691371	3
145	5383	12.906028691371	1
145	5846	13.243963135454	3
145	5869	13.244455135454	1
145	5896	13.296556021508	3
145	5916	13.296920021508	1
145	5942	13.403789205223	3
145	5965	13.404153205223	1
145	6122	13.635916730574	3
145	6146	13.636408730574	1
145	6175	13.705820175107	3
145	6193	13.706312175107	1
145	6325	13.862451638176	3
145	6343	13.862943638176	1
145	6881	14.434262862441	3
145	6903	14.434754862441	1
145	6933	14.470725481527	3
145	6958	14.471217481527	1
145	7372	14.864762043078	3
145	7392	14.865126043078	1
146	2832	9.5	1
146	2873	9.575987480395	2
146	2886	9.576383480395	1
146	3756	10.914368588012	2
146	3770	10.914860588012	1
146	4362	11.519336183835	2
146	4378	11.519700183835	1
146	4806	12.011469859164	2
146	4823	12.011961859164	1
146	5989	13.492363395402	2
146	6006	13.492855395402	1
146	7308	14.810932350345	2
146	7328	14.811424350345	1
147	2870	9.575987480395	1
148	2872	9.575987480395	64
148	3755	10.914368588012	88
148	4361	11.519336183835	56
148	4805	12.011469859164	88
148	5988	13.492363395402	88
148	7307	14.810932350345	88
149	2872	9.575987480395	64
149	3755	10.914368588012	88
149	4361	11.519336183835	56
149	4805	12.011469859164	88
149	5988	13.492363395402	88
149	7307	14.810932350345	88
150	2872	9.575987480395	1
150	2872	9.575987480395	0
150	3755	10.914368588012	1
150	3755	10.914368588012	0
150	4361	11.519336183835	1
150	4361	11.519336183835	0
150	4805	12.011469859164	1
150	4805	12.011469859164	0
150	5988	13.492363395402	1
150	5988	13.492363395402	0
150	7307	14.810932350345	1
150	7307	14.810932350345	0
151	2872	9.575987480395	64
151	3755	10.914368588012	88
151	4361	11.519336183835	56
151	4805	12.011469859164	88
151	5988	13.492363395402	88
151	7307	14.810932350345	88
152	2872	9.575987480395	0
152	3755	10.914368588012	0
152	4361	11.519336183835	0
152	4805	12.011469859164	0
152	5988	13.492363395402	0
152	7307	14.810932350345	0
153	2872	9.575987480395	87
153	3755	10.914368588012	111
153	4361	11.519336183835	79
153	4805	12.011469859164	111
153	5988	13.492363395402	111
153	7307	14.810932350345	111
154	2925	9.709104089121	111
154	3321	10.150988958272	111
154	3372	10.169969491284	111
154	3447	10.20282208467	87
154	3721	10.865125945585	79
154	4103	11.289171862007	111
154	4188	11.332614237945	111
154	4436	11.656821990334	111
154	4599	11.94831495468	111
154	4885	12.271088863181	79
154	4972	12.376903438729	79
154	5024	12.388328959453	111
154	5119	12.554278982626	111
154	5210	12.707913282426	79
154	5248	12.79879617075	111
154	5384	12.906028691371	111
154	5870	13.244455135454	111
154	5917	13.296920021508	79
154	5966	13.404153205223	79
154	6147	13.636408730574	111
154	6194	13.706312175107	111
154	6344	13.862943638176	111
154	6904	14.434754862441	111
154	6959	14.471217481527	111
154	7393	14.865126043078	79
155	2925	9.709104089121	88
155	3321	10.150988958272	88
155	3372	10.169969491284	88
155	3447	10.20282208467	64
155	3721	10.865125945585	56
155	4103	11.289171862007	88
155	4188	11.332614237945	88
155	4436	11.656821990334	88
155	4599	11.94831495468	88
155	4885	12.271088863181	56
155	4972	12.376903438729	56
155	5024	12.388328959453	88
155	5119	12.554278982626	88
155	5210	12.707913282426	56
155	5248	12.79879617075	88
155	5384	12.906028691371	88
155	5870	13.244455135454	88
155	5917	13.296920021508	56
155	5966	13.404153205223	56
155	6147	13.636408730574	88
155	6194	13.706312175107	88
155	6344	13.862943638176	88
155	6904	14.434754862441	88
155	6959	14.471217481527	88
155	7393	14.865126043078	56
156	3063	10	0
156	3063	10	0
156	3063	10	4
157	3063	10	1
157	3310	10.150497103282	3
157	3336	10.150989103282	1
157	3353	10.169477151735	3
157	3367	10.169969151735	1
157	3709	10.864762338663	3
157	3732	10.865126338663	1
157	3760	10.914368981525	3
157	3783	10.914860981525	1
157	4091	11.288680017601	3
157	4118	11.289172017601	1
157	4175	11.332122633583	3
157	4199	11.332614633583	1
157	4366	11.519336582178	3
157	4391	11.519700582178	1
157	4578	11.947822663328	3
157	4594	11.948314663328	1
157	4810	12.011470259976	3
157	4836	12.011962259976	1
157	4958	12.376539598531	3
157	4983	12.376903598531	1
157	5010	12.38783735998	3
157	5035	12.38832935998	1
157	5234	12.798304330098	3
157	5259	12.798796330098	1
157	5531	12.983972035746	3
157	5547	12.984464035746	1
157	5844	13.24396288821	3
157	5861	13.24445488821	1
157	5940	13.403788957979	3
157	5957	13.404152957979	1
157	5993	13.492363801151	3
157	6019	13.492855801151	1
157	6179	13.705820583005	3
157	6209	13.706312583005	1
157	6328	13.862451788123	3
157	6355	13.862943788123	1
157	7031	14.492940972349	3
157	7050	14.493432972349	1
157	7312	14.810932763056	3
157	7341	14.811424763056	1
157	7377	14.864762455367	3
157	7412	14.865126455367	1
158	3063	10	1
158	3428	10.202425696678	2
158	3442	10.202821696678	1
158	4414	11.656329591991	2
158	4430	11.656821591991	1
158	4863	12.270724462369	2
158	4879	12.271088462369	1
158	6119	13.635916322469	2
158	6137	13.636408322469	1
159	3337	10.150989103282	111
159	3368	10.169969151735	111
159	3733	10.865126338663	79
159	3784	10.914860981525	111
159	4119	11.289172017601	111
159	4200	11.332614633583	111
159	4392	11.519700582178	79
159	4595	11.948314663328	111
159	4837	12.011962259976	111
159	4984	12.376903598531	79
159	5036	12.38832935998	111
159	5260	12.798796330098	111
159	5548	12.984464035746	111
159	5862	13.24445488821	111
159	5958	13.404152957979	79
159	6020	13.492855801151	111
159	6210	13.706312583005	111
159	6356	13.862943788123	111
159	7051	14.493432972349	111
159	7342	14.811424763056	111
159	7413	14.865126455367	79
160	3337	10.150989103282	88
160	3368	10.169969151735	88
160	3733	10.865126338663	56
160	3784	10.914860981525	88
160	4119	11.289172017601	88
160	4200	11.332614633583	88
160	4392	11.519700582178	56
160	4595	11.948314663328	88
160	4837	12.011962259976	88
160	4984	12.376903598531	56
160	5036	12.38832935998	88
160	5260	12.798796330098	88
160	5548	12.984464035746	88
160	5862	13.24445488821	88
160	5958	13.404152957979	56
160	6020	13.492855801151	88
160	6210	13.706312583005	88
160	6356	13.862943788123	88
160	7051	14.493432972349	88
160	7342	14.811424763056	88
160	7413	14.865126455367	56
161	3425	10.202425696678	1
162	3427	10.202425696678	64
162	4413	11.656329591991	88
162	4862	12.270724462369	56
162	6118	13.635916322469	88
163	3427	10.202425696678	64
163	4413	11.656329591991	88
163	4862	12.270724462369	56
163	6118	13.635916322469	88
164	3427	10.202425696678	1
164	3427	10.202425696678	0
164	4413	11.656329591991	1
164	4413	11.656329591991	0
164	4862	12.270724462369	1
164	4862	12.270724462369	0
164	6118	13.635916322469	1
164	6118	13.635916322469	0
165	3427	10.202425696678	64
165	4413	11.656329591991	88
165	4862	12.270724462369	56
165	6118	13.635916322469	88
166	3427	10.202425696678	0
166	4413	11.656329591991	0
166	4862	12.270724462369	0
166	6118	13.635916322469	0
167	3427	10.202425696678	87
167	4413	11.656329591991	111
167	4862	12.270724462369	79
167	6118	13.635916322469	111
168	3893	11	0
168	3893	11	0
168	3893	11	4
169	3893	11	1
169	4464	11.770674602859	3
169	4480	11.771166602859	1
169	5324	12.890871199704	3
169	5340	12.891363199704	1
169	6649	14.091557321302	3
169	6668	14.091921321302	1
169	7114	14.583343364293	3
169	7134	14.583835364293	1
169	7163	14.58654297776	3
169	7183	14.58693897776	1
170	3893	11	1
170	4134	11.291583499685	2
170	4149	11.291979499685	1
170	5492	12.976459465222	2
170	5508	12.976951465222	1
170	6076	13.546063154517	2
170	6094	13.546427154517	1
170	6738	14.241848956327	2
170	6757	14.242340956327	1
171	4131	11.291583499685	1
172	4133	11.291583499685	64
172	5491	12.976459465222	88
172	6075	13.546063154517	56
172	6737	14.241848956327	88
173	4133	11.291583499685	64
173	5491	12.976459465222	88
173	6075	13.546063154517	56
173	6737	14.241848956327	88
174	4133	11.291583499685	1
174	4133	11.291583499685	0
174	5491	12.976459465222	1
174	5491	12.976459465222	0
174	6075	13.546063154517	1
174	6075	13.546063154517	0
174	6737	14.241848956327	1
174	6737	14.241848956327	0
175	4133	11.291583499685	64
175	5491	12.976459465222	88
175	6075	13.546063154517	56
175	6737	14.241848956327	88
176	4133	11.291583499685	0
176	5491	12.976459465222	0
176	6075	13.546063154517	0
176	6737	14.241848956327	0
177	4133	11.291583499685	87
177	5491	12.976459465222	111
177	6075	13.546063154517	79
177	6737	14.241848956327	111
178	4151	11.291979706226	87
178	5510	12.976951721027	111
178	6096	13.546427436243	79
178	6759	14.242341248622	111
178	7187	14.586939278769	87
179	4151	11.291979706226	64
179	5510	12.976951721027	88
179	6096	13.546427436243	56
179	6759	14.242341248622	88
179	7187	14.586939278769	64
180	4317	11.5	0
180	4317	11.5	0
180	4317	11.5	4
181	4317	11.5	1
181	4539	11.859013692777	3
181	4555	11.859505692777	1
181	5092	12.553786969127	3
181	5114	12.554278969127	1
181	5183	12.707549268927	3
181	5205	12.707913268927	1
181	5282	12.821962287612	3
181	5298	12.822454287612	1
181	5803	13.21845815153	3
181	5820	13.21895015153	1
181	6380	13.891964761391	3
181	6398	13.892328761391	1
181	6552	14.038784352751	3
181	6571	14.039276352751	1
181	6784	14.301570631136	3
181	6803	14.302062631136	1
181	6832	14.404725206565	3
181	6851	14.405089206565	1
182	4317	11.5	1
182	4321	11.511756336689	2
182	4337	11.512152336689	1
182	5447	12.94171092147	2
182	5463	12.94220292147	1
182	6235	13.712798769027	2
182	6253	13.713162769027	1
182	7259	14.806813485455	2
182	7279	14.807305485455	1
183	4318	11.511756336689	1
184	4320	11.511756336689	64
184	5446	12.94171092147	88
184	6234	13.712798769027	56
184	7258	14.806813485455	88
185	4320	11.511756336689	64
185	5446	12.94171092147	88
185	6234	13.712798769027	56
185	7258	14.806813485455	88
186	4320	11.511756336689	1
186	4320	11.511756336689	0
186	5446	12.94171092147	1
186	5446	12.94171092147	0
186	6234	13.712798769027	1
186	6234	13.712798769027	0
186	7258	14.806813485455	1
186	7258	14.806813485455	0
187	4320	11.511756336689	64
187	5446	12.94171092147	88
187	6234	13.712798769027	56
187	7258	14.806813485455	88
188	4320	11.511756336689	0
188	5446	12.94171092147	0
188	6234	13.712798769027	0
188	7258	14.806813485455	0
189	4320	11.511756336689	87
189	5446	12.94171092147	111
189	6234	13.712798769027	79
189	7258	14.806813485455	111
190	4342	11.512152937687	87
190	5465	12.942203488375	111
190	6214	13.706312591699	111
190	6255	13.713163284807	79
190	7281	14.807305966219	111
190	7409	14.865126413971	79
191	4342	11.512152937687	64
191	5465	12.942203488375	88
191	6214	13.706312591699	88
191	6255	13.713163284807	56
191	7281	14.807305966219	88
191	7409	14.865126413971	56
192	4345	11.512152948869	87
192	5469	12.942203523879	111
192	6259	13.713163370812	79
192	6625	14.056714103822	111
192	7285	14.807306074195	111
193	4345	11.512152948869	64
193	5469	12.942203523879	88
193	6259	13.713163370812	56
193	6625	14.056714103822	88
193	7285	14.807306074195	88
194	4481	11.771166602859	111
194	5341	12.891363199704	111
194	6669	14.091921321302	79
194	7135	14.583835364293	111
194	7184	14.58693897776	87
195	4481	11.771166602859	88
195	5341	12.891363199704	88
195	6669	14.091921321302	56
195	7135	14.583835364293	88
195	7184	14.58693897776	64
196	4556	11.859505692777	111
196	5115	12.554278969127	111
196	5206	12.707913268927	79
196	5299	12.822454287612	111
196	5821	13.21895015153	111
196	6399	13.892328761391	79
196	6572	14.039276352751	111
196	6804	14.302062631136	111
196	6852	14.405089206565	79
197	4556	11.859505692777	88
197	5115	12.554278969127	88
197	5206	12.707913268927	56
197	5299	12.822454287612	88
197	5821	13.21895015153	88
197	6399	13.892328761391	56
197	6572	14.039276352751	88
197	6804	14.302062631136	88
197	6852	14.405089206565	56
198	5596	13	0
198	5596	13	0
198	5596	13	4
199	5596	13	1
199	5601	13.000000529391	3
199	5619	13.000620529391	1
199	6283	13.752703060861	3
199	6301	13.753099060861	1
199	6460	14.00000052214	3
199	6480	14.00062052214	1
199	6982	14.473821635491	3
199	7004	14.474265635491	1
199	7213	14.631798308958	3
199	7233	14.632290308958	1
200	5596	13	1
200	5762	13.028182151797	2
200	5779	13.028578151797	1
200	7436	14.921157612	2
200	7456	14.921649612	1
201	5620	13.000620529391	143
201	6302	13.753099060861	87
201	6481	14.00062052214	143
201	7005	14.474265635491	99
201	7234	14.632290308958	111
202	5620	13.000620529391	143
202	6481	14.00062052214	143
203	5759	13.028182151797	1
204	5761	13.028182151797	64
204	7435	14.921157612	88
205	5761	13.028182151797	64
205	7435	14.921157612	88
206	5761	13.028182151797	1
206	5761	13.028182151797	0
206	7435	14.921157612	1
206	7435	14.921157612	0
207	5761	13.028182151797	64
207	7435	14.921157612	88
208	5761	13.028182151797	0
208	7435	14.921157612	0
209	5761	13.028182151797	87
209	7435	14.921157612	111
210	6071	13.5	0
210	6071	13.5	0
210	6071	13.5	4
211	6071	13.5	1
211	7437	14.921158058952	3
211	7457	14.921650058952	1
212	6071	13.5	1
212	6282	13.752702623745	2
212	6300	13.753098623745	1
212	7212	14.631797862006	2
212	7232	14.632289862006	1
213	6279	13.752702623745	1
214	6281	13.752702623745	64
214	7211	14.631797862006	88
215	6281	13.752702623745	64
215	7211	14.631797862006	88
216	6281	13.752702623745	1
216	6281	13.752702623745	0
216	7211	14.631797862006	1
216	7211	14.631797862006	0
217	6281	13.752702623745	64
217	7211	14.631797862006	88
218	6281	13.752702623745	0
218	7211	14.631797862006	0
219	6281	13.752702623745	87
219	7211	14.631797862006	111
220	6302	13.753099060861	64
220	7005	14.474265635491	76
220	7234	14.632290308958	88
221	6455	14	0
221	6455	14	0
221	6455	14	4
222	6455	14	1
222	6931	14.470725128455	3
222	6950	14.471217128455	1
222	7378	14.864762503307	3
222	7416	14.865126503307	1
223	6455	14	1
223	6694	14.119346225495	2
223	6713	14.119742225495	1
224	6691	14.119346225495	1
225	6693	14.119346225495	64
226	6693	14.119346225495	64
227	6693	14.119346225495	1
227	6693	14.119346225495	0
228	6693	14.119346225495	64
229	6693	14.119346225495	0
230	6693	14.119346225495	87
231	6951	14.471217128455	111
231	7417	14.865126503307	79
232	6951	14.471217128455	88
232	7417	14.865126503307	56
233	7108	14.5	0
233	7108	14.5	0
233	7108	14.5	4
234	7108	14.5	1
234	7115	14.583343412286	3
234	7138	14.583835412286	1
235	7108	14.5	1
235	7162	14.586542929732	2
235	7182	14.586938929732	1
236	7139	14.583835412286	111
237	7139	14.583835412286	88
238	7159	14.586542929732	1
239	7161	14.586542929732	64
240	7161	14.586542929732	64
241	7161	14.586542929732	1
241	7161	14.586542929732	0
242	7161	14.586542929732	64
243	7161	14.586542929732	0
244	7161	14.586542929732	87
245	7458	14.921650058952	111
246	7458	14.921650058952	88
