version 3
run RoutingProtocol-0-20210305-01:05:51-30411
attr configname RoutingProtocol
attr datetime 20210305-01:05:51
attr datetimef 20210305-010551
attr experiment RoutingProtocol
attr inifile omnetpp.ini
attr iterationvars ""
attr iterationvarsf ""
attr measurement ""
attr network veins_proj.examples.test.Scenario
attr processid 30411
attr repetition 0
attr replication #0
attr resultdir results
attr runnumber 0
attr seedset 0
itervar iterationvarsd ""
config debug-on-errors true
config image-path ../../images:../../../veins/images:../../../inet/images:../../../veins_inet/images
config extends Base
config *.host[*].mobility.coordinateSystemModule "\"coordinateSystem\""
config *.host[*].mobility.initialAltitude 0m
config *.host[0].mobility.initialLatitude 19.4494283deg
config *.host[0].mobility.initialLongitude -99.1598713deg
config *.host[1].mobility.initialLatitude 19.4486142deg
config *.host[1].mobility.initialLongitude -99.1600466deg
config **.routingProtocol.beaconInterval 0.5s
config **.routingProtocol.proximityRadius 100m
config *.host[*].numApps 1
config *.host[*].app[0].typename inet.applications.pingapp.PingApp
config *.host[*].app[0].printPing true
config *.host[0].app[0].srcAddr "\"fec0:0:12f1:dbb8:8aa:ff:fe00:1\""
config *.host[0].app[0].destAddr "\"fec0:0:12f1:dbb8:8aa:ff:fe00:2\""
config *.host[0].app[0].startTime 1s
config network veins_proj.examples.test.Scenario
config *.node[*].mobility.typename org.car2x.veins.subprojects.veins_proj.mobility.CarMobility
config *.node[*].mobility.vertexProximityRadius 10m
config *.host[*].mobility.typename org.car2x.veins.subprojects.veins_proj.mobility.StaticHostMobility
config **.wlan[*].typename AckingWirelessInterface
config **.wlan[*].bitrate 2Mbps
config **.wlan[*].mac.headerLength 23B
config **.wlan[*].radio.typename inet.physicallayer.wireless.unitdisk.UnitDiskRadio
config **.wlan[*].radio.transmitter.communicationRange 200m
config **.wlan[*].radio.transmitter.bitrate 11Mbps
config **.wlan[*].radio.transmitter.headerLength 96b
config *.visualizer.*.mediumVisualizer.displayCommunicationRanges true
config *.visualizer.*.packetDropVisualizer[*].displayPacketDrops false
config *.visualizer.*.dataLinkVisualizer.displayLinks true
config *.visualizer.*.dataLinkVisualizer[*].fadeOutTime 2s
config *.visualizer.*.networkRouteVisualizer[*].displayRoutes true
config *.visualizer.*.networkRouteVisualizer[*].packetFilter "\"ping*\""
config *.visualizer.*.networkRouteVisualizer[*].fadeOutMode "\"simulationTime\""
config *.visualizer.*.networkRouteVisualizer[*].fadeOutTime 2s
config *.coordinateSystem.sceneLatitude 19.4512939453deg
config *.coordinateSystem.sceneLongitude -99.1625976562deg
config sim-time-limit 600s
config debug-on-errors true
config cmdenv-express-mode true
config image-path ../../images
config **.scalar-recording true
config **.vector-recording true
config *.manager.updateInterval 0.5s
config *.manager.host "\"localhost\""
config *.manager.port 9999
config *.manager.autoShutdown true
config *.manager.launchConfig "xmldoc(\"9g3qxs.launchd.xml\")"
config *.manager.moduleType "\"org.car2x.veins.subprojects.veins_proj.node.Car\""
config *.obstacles.obstacles "xmldoc(\"config.xml\", \"//AnalogueModel[@type='SimpleObstacleShadowing']/obstacles\")"

vector 0 Scenario.host[0].wlan[0].radio radioMode:vector ETV
attr interpolationmode sample-hold
attr source radioModeChanged
attr title "Radio mode, vector"
vector 1 Scenario.host[1].wlan[0].radio radioMode:vector ETV
attr interpolationmode sample-hold
attr source radioModeChanged
attr title "Radio mode, vector"
vector 2 Scenario.host[0].wlan[0].radio receptionState:vector ETV
attr interpolationmode sample-hold
attr source receptionStateChanged
attr title "Radio reception state, vector"
vector 3 Scenario.host[0].wlan[0].radio transmissionState:vector ETV
attr interpolationmode sample-hold
attr source transmissionStateChanged
attr title "Radio transmission state, vector"
vector 4 Scenario.host[1].wlan[0].radio receptionState:vector ETV
attr interpolationmode sample-hold
attr source receptionStateChanged
attr title "Radio reception state, vector"
vector 5 Scenario.host[1].wlan[0].radio transmissionState:vector ETV
attr interpolationmode sample-hold
attr source transmissionStateChanged
attr title "Radio transmission state, vector"
vector 6 Scenario.node[0].wlan[0].radio radioMode:vector ETV
attr interpolationmode sample-hold
attr source radioModeChanged
attr title "Radio mode, vector"
vector 7 Scenario.node[0].wlan[0].radio receptionState:vector ETV
attr interpolationmode sample-hold
attr source receptionStateChanged
attr title "Radio reception state, vector"
vector 8 Scenario.node[0].wlan[0].radio transmissionState:vector ETV
attr interpolationmode sample-hold
attr source transmissionStateChanged
attr title "Radio transmission state, vector"
vector 9 Scenario.node[0].ipv6.neighbourDiscovery startDad:vector ETV
attr title "DAD started, vector"
vector 10 Scenario.node[0].wlan[0].mac rcvdPkFromHl:vector(packetBytes) ETV
attr interpolationmode none
attr source packetReceivedFromUpper
attr title "packets received from higher layer, vector(packetBytes)"
vector 11 Scenario.node[0].wlan[0].mac.queue packetPushed:vector(packetBytes) ETV
attr interpolationmode none
attr title "packet pushed, vector(packetBytes)"
vector 12 Scenario.node[0].wlan[0].mac.queue queueLength:vector ETV
attr autoWarmupFilter false
attr interpolationmode sample-hold
attr source "warmup(count(packetPushed) - count(packetPulled) - count(packetRemoved) - count(packetDropped))"
attr title "queue length, vector"
attr type int
vector 13 Scenario.node[0].wlan[0].mac.queue packetPulled:vector(packetBytes) ETV
attr interpolationmode none
attr title "packet pulled, vector(packetBytes)"
vector 14 Scenario.node[0].wlan[0].mac.queue queueingTime:vector ETV
attr interpolationmode none
attr source queueingTime(packetPulled)
attr title "queueing times, vector"
attr unit s
vector 15 Scenario.node[0].wlan[0].mac sentDownPk:vector(packetBytes) ETV
attr interpolationmode none
attr source packetSentToLower
attr title "packets sent to lower layer, vector(packetBytes)"
vector 16 Scenario.host[1].wlan[0].mac rcvdPkFromLl:vector(packetBytes) ETV
attr interpolationmode none
attr source packetReceivedFromLower
attr title "packets received from lower layer, vector(packetBytes)"
vector 17 Scenario.host[1].wlan[0].mac passedUpPk:vector(packetBytes) ETV
attr interpolationmode none
attr source packetSentToUpper
attr title "packets passed to higher layer, vector(packetBytes)"
vector 18 Scenario.host[0].wlan[0].mac rcvdPkFromLl:vector(packetBytes) ETV
attr interpolationmode none
attr source packetReceivedFromLower
attr title "packets received from lower layer, vector(packetBytes)"
vector 19 Scenario.host[0].wlan[0].mac passedUpPk:vector(packetBytes) ETV
attr interpolationmode none
attr source packetSentToUpper
attr title "packets passed to higher layer, vector(packetBytes)"
vector 20 Scenario.host[1].ipv6.neighbourDiscovery startDad:vector ETV
attr title "DAD started, vector"
vector 21 Scenario.host[1].wlan[0].mac rcvdPkFromHl:vector(packetBytes) ETV
attr interpolationmode none
attr source packetReceivedFromUpper
attr title "packets received from higher layer, vector(packetBytes)"
vector 22 Scenario.host[1].wlan[0].mac.queue packetPushed:vector(packetBytes) ETV
attr interpolationmode none
attr title "packet pushed, vector(packetBytes)"
vector 23 Scenario.host[1].wlan[0].mac.queue queueLength:vector ETV
attr autoWarmupFilter false
attr interpolationmode sample-hold
attr source "warmup(count(packetPushed) - count(packetPulled) - count(packetRemoved) - count(packetDropped))"
attr title "queue length, vector"
attr type int
vector 24 Scenario.host[1].wlan[0].mac.queue packetPulled:vector(packetBytes) ETV
attr interpolationmode none
attr title "packet pulled, vector(packetBytes)"
vector 25 Scenario.host[1].wlan[0].mac.queue queueingTime:vector ETV
attr interpolationmode none
attr source queueingTime(packetPulled)
attr title "queueing times, vector"
attr unit s
vector 26 Scenario.host[1].wlan[0].mac sentDownPk:vector(packetBytes) ETV
attr interpolationmode none
attr source packetSentToLower
attr title "packets sent to lower layer, vector(packetBytes)"
vector 27 Scenario.node[0].wlan[0].mac rcvdPkFromLl:vector(packetBytes) ETV
attr interpolationmode none
attr source packetReceivedFromLower
attr title "packets received from lower layer, vector(packetBytes)"
vector 28 Scenario.node[0].wlan[0].mac passedUpPk:vector(packetBytes) ETV
attr interpolationmode none
attr source packetSentToUpper
attr title "packets passed to higher layer, vector(packetBytes)"
vector 29 Scenario.host[0].ipv6.neighbourDiscovery startDad:vector ETV
attr title "DAD started, vector"
vector 30 Scenario.host[0].wlan[0].mac rcvdPkFromHl:vector(packetBytes) ETV
attr interpolationmode none
attr source packetReceivedFromUpper
attr title "packets received from higher layer, vector(packetBytes)"
vector 31 Scenario.host[0].wlan[0].mac.queue packetPushed:vector(packetBytes) ETV
attr interpolationmode none
attr title "packet pushed, vector(packetBytes)"
vector 32 Scenario.host[0].wlan[0].mac.queue queueLength:vector ETV
attr autoWarmupFilter false
attr interpolationmode sample-hold
attr source "warmup(count(packetPushed) - count(packetPulled) - count(packetRemoved) - count(packetDropped))"
attr title "queue length, vector"
attr type int
vector 33 Scenario.host[0].wlan[0].mac.queue packetPulled:vector(packetBytes) ETV
attr interpolationmode none
attr title "packet pulled, vector(packetBytes)"
vector 34 Scenario.host[0].wlan[0].mac.queue queueingTime:vector ETV
attr interpolationmode none
attr source queueingTime(packetPulled)
attr title "queueing times, vector"
attr unit s
vector 35 Scenario.host[0].wlan[0].mac sentDownPk:vector(packetBytes) ETV
attr interpolationmode none
attr source packetSentToLower
attr title "packets sent to lower layer, vector(packetBytes)"
vector 36 Scenario.host[0].app[0] pingTxSeq:vector ETV
attr interpolationmode none
attr title "ping tx seq, vector"
vector 37 Scenario.node[1].wlan[0].radio radioMode:vector ETV
attr interpolationmode sample-hold
attr source radioModeChanged
attr title "Radio mode, vector"
vector 38 Scenario.node[1].wlan[0].radio receptionState:vector ETV
attr interpolationmode sample-hold
attr source receptionStateChanged
attr title "Radio reception state, vector"
vector 39 Scenario.node[1].wlan[0].radio transmissionState:vector ETV
attr interpolationmode sample-hold
attr source transmissionStateChanged
attr title "Radio transmission state, vector"
vector 40 Scenario.node[1].ipv6.neighbourDiscovery startDad:vector ETV
attr title "DAD started, vector"
vector 41 Scenario.node[1].wlan[0].mac rcvdPkFromHl:vector(packetBytes) ETV
attr interpolationmode none
attr source packetReceivedFromUpper
attr title "packets received from higher layer, vector(packetBytes)"
vector 42 Scenario.node[1].wlan[0].mac.queue packetPushed:vector(packetBytes) ETV
attr interpolationmode none
attr title "packet pushed, vector(packetBytes)"
vector 43 Scenario.node[1].wlan[0].mac.queue queueLength:vector ETV
attr autoWarmupFilter false
attr interpolationmode sample-hold
attr source "warmup(count(packetPushed) - count(packetPulled) - count(packetRemoved) - count(packetDropped))"
attr title "queue length, vector"
attr type int
vector 44 Scenario.node[1].wlan[0].mac.queue packetPulled:vector(packetBytes) ETV
attr interpolationmode none
attr title "packet pulled, vector(packetBytes)"
vector 45 Scenario.node[1].wlan[0].mac.queue queueingTime:vector ETV
attr interpolationmode none
attr source queueingTime(packetPulled)
attr title "queueing times, vector"
attr unit s
vector 46 Scenario.node[1].wlan[0].mac sentDownPk:vector(packetBytes) ETV
attr interpolationmode none
attr source packetSentToLower
attr title "packets sent to lower layer, vector(packetBytes)"
vector 47 Scenario.node[2].wlan[0].radio radioMode:vector ETV
attr interpolationmode sample-hold
attr source radioModeChanged
attr title "Radio mode, vector"
vector 48 Scenario.node[2].wlan[0].radio receptionState:vector ETV
attr interpolationmode sample-hold
attr source receptionStateChanged
attr title "Radio reception state, vector"
vector 49 Scenario.node[2].wlan[0].radio transmissionState:vector ETV
attr interpolationmode sample-hold
attr source transmissionStateChanged
attr title "Radio transmission state, vector"
vector 50 Scenario.node[2].ipv6.neighbourDiscovery startDad:vector ETV
attr title "DAD started, vector"
vector 51 Scenario.node[2].wlan[0].mac rcvdPkFromHl:vector(packetBytes) ETV
attr interpolationmode none
attr source packetReceivedFromUpper
attr title "packets received from higher layer, vector(packetBytes)"
vector 52 Scenario.node[2].wlan[0].mac.queue packetPushed:vector(packetBytes) ETV
attr interpolationmode none
attr title "packet pushed, vector(packetBytes)"
vector 53 Scenario.node[2].wlan[0].mac.queue queueLength:vector ETV
attr autoWarmupFilter false
attr interpolationmode sample-hold
attr source "warmup(count(packetPushed) - count(packetPulled) - count(packetRemoved) - count(packetDropped))"
attr title "queue length, vector"
attr type int
vector 54 Scenario.node[2].wlan[0].mac.queue packetPulled:vector(packetBytes) ETV
attr interpolationmode none
attr title "packet pulled, vector(packetBytes)"
vector 55 Scenario.node[2].wlan[0].mac.queue queueingTime:vector ETV
attr interpolationmode none
attr source queueingTime(packetPulled)
attr title "queueing times, vector"
attr unit s
vector 56 Scenario.node[2].wlan[0].mac sentDownPk:vector(packetBytes) ETV
attr interpolationmode none
attr source packetSentToLower
attr title "packets sent to lower layer, vector(packetBytes)"
vector 57 Scenario.node[3].wlan[0].radio radioMode:vector ETV
attr interpolationmode sample-hold
attr source radioModeChanged
attr title "Radio mode, vector"
vector 58 Scenario.node[3].wlan[0].radio receptionState:vector ETV
attr interpolationmode sample-hold
attr source receptionStateChanged
attr title "Radio reception state, vector"
vector 59 Scenario.node[3].wlan[0].radio transmissionState:vector ETV
attr interpolationmode sample-hold
attr source transmissionStateChanged
attr title "Radio transmission state, vector"
vector 60 Scenario.host[1].wlan[0].mac packetDropNotAddressedToUs:vector(packetBytes) ETV
attr interpolationmode none
attr source packetDropReasonIsNotAddressedToUs(packetDropped)
attr title "packet drop: not addressed to us, vector(packetBytes)"
vector 61 Scenario.host[0].wlan[0].mac packetDropNotAddressedToUs:vector(packetBytes) ETV
attr interpolationmode none
attr source packetDropReasonIsNotAddressedToUs(packetDropped)
attr title "packet drop: not addressed to us, vector(packetBytes)"
vector 62 Scenario.host[0].app[0] pingRxSeq:vector ETV
attr interpolationmode none
attr title "ping rx seq, vector"
vector 63 Scenario.host[0].app[0] rtt:vector ETV
attr interpolationmode none
attr title "ping round-trip time, vector"
attr unit s
vector 64 Scenario.host[0].app[0] numLost:vector ETV
attr interpolationmode none
attr title "pings lost, vector"
vector 65 Scenario.node[3].ipv6.neighbourDiscovery startDad:vector ETV
attr title "DAD started, vector"
vector 66 Scenario.node[3].wlan[0].mac rcvdPkFromHl:vector(packetBytes) ETV
attr interpolationmode none
attr source packetReceivedFromUpper
attr title "packets received from higher layer, vector(packetBytes)"
vector 67 Scenario.node[3].wlan[0].mac.queue packetPushed:vector(packetBytes) ETV
attr interpolationmode none
attr title "packet pushed, vector(packetBytes)"
vector 68 Scenario.node[3].wlan[0].mac.queue queueLength:vector ETV
attr autoWarmupFilter false
attr interpolationmode sample-hold
attr source "warmup(count(packetPushed) - count(packetPulled) - count(packetRemoved) - count(packetDropped))"
attr title "queue length, vector"
attr type int
vector 69 Scenario.node[3].wlan[0].mac.queue packetPulled:vector(packetBytes) ETV
attr interpolationmode none
attr title "packet pulled, vector(packetBytes)"
vector 70 Scenario.node[3].wlan[0].mac.queue queueingTime:vector ETV
attr interpolationmode none
attr source queueingTime(packetPulled)
attr title "queueing times, vector"
attr unit s
vector 71 Scenario.node[3].wlan[0].mac sentDownPk:vector(packetBytes) ETV
attr interpolationmode none
attr source packetSentToLower
attr title "packets sent to lower layer, vector(packetBytes)"
vector 72 Scenario.node[2].wlan[0].mac rcvdPkFromLl:vector(packetBytes) ETV
attr interpolationmode none
attr source packetReceivedFromLower
attr title "packets received from lower layer, vector(packetBytes)"
vector 73 Scenario.node[2].wlan[0].mac passedUpPk:vector(packetBytes) ETV
attr interpolationmode none
attr source packetSentToUpper
attr title "packets passed to higher layer, vector(packetBytes)"
vector 74 Scenario.node[3].wlan[0].mac rcvdPkFromLl:vector(packetBytes) ETV
attr interpolationmode none
attr source packetReceivedFromLower
attr title "packets received from lower layer, vector(packetBytes)"
vector 75 Scenario.node[3].wlan[0].mac passedUpPk:vector(packetBytes) ETV
attr interpolationmode none
attr source packetSentToUpper
attr title "packets passed to higher layer, vector(packetBytes)"
vector 76 Scenario.node[4].wlan[0].radio radioMode:vector ETV
attr interpolationmode sample-hold
attr source radioModeChanged
attr title "Radio mode, vector"
vector 77 Scenario.node[4].wlan[0].radio receptionState:vector ETV
attr interpolationmode sample-hold
attr source receptionStateChanged
attr title "Radio reception state, vector"
vector 78 Scenario.node[4].wlan[0].radio transmissionState:vector ETV
attr interpolationmode sample-hold
attr source transmissionStateChanged
attr title "Radio transmission state, vector"
vector 79 Scenario.node[4].ipv6.neighbourDiscovery startDad:vector ETV
attr title "DAD started, vector"
vector 80 Scenario.node[4].wlan[0].mac rcvdPkFromHl:vector(packetBytes) ETV
attr interpolationmode none
attr source packetReceivedFromUpper
attr title "packets received from higher layer, vector(packetBytes)"
vector 81 Scenario.node[4].wlan[0].mac.queue packetPushed:vector(packetBytes) ETV
attr interpolationmode none
attr title "packet pushed, vector(packetBytes)"
vector 82 Scenario.node[4].wlan[0].mac.queue queueLength:vector ETV
attr autoWarmupFilter false
attr interpolationmode sample-hold
attr source "warmup(count(packetPushed) - count(packetPulled) - count(packetRemoved) - count(packetDropped))"
attr title "queue length, vector"
attr type int
vector 83 Scenario.node[4].wlan[0].mac.queue packetPulled:vector(packetBytes) ETV
attr interpolationmode none
attr title "packet pulled, vector(packetBytes)"
vector 84 Scenario.node[4].wlan[0].mac.queue queueingTime:vector ETV
attr interpolationmode none
attr source queueingTime(packetPulled)
attr title "queueing times, vector"
attr unit s
vector 85 Scenario.node[4].wlan[0].mac sentDownPk:vector(packetBytes) ETV
attr interpolationmode none
attr source packetSentToLower
attr title "packets sent to lower layer, vector(packetBytes)"
vector 86 Scenario.node[5].wlan[0].radio radioMode:vector ETV
attr interpolationmode sample-hold
attr source radioModeChanged
attr title "Radio mode, vector"
vector 87 Scenario.node[5].wlan[0].radio receptionState:vector ETV
attr interpolationmode sample-hold
attr source receptionStateChanged
attr title "Radio reception state, vector"
vector 88 Scenario.node[5].wlan[0].radio transmissionState:vector ETV
attr interpolationmode sample-hold
attr source transmissionStateChanged
attr title "Radio transmission state, vector"
vector 89 Scenario.node[5].ipv6.neighbourDiscovery startDad:vector ETV
attr title "DAD started, vector"
vector 90 Scenario.node[5].wlan[0].mac rcvdPkFromHl:vector(packetBytes) ETV
attr interpolationmode none
attr source packetReceivedFromUpper
attr title "packets received from higher layer, vector(packetBytes)"
vector 91 Scenario.node[5].wlan[0].mac.queue packetPushed:vector(packetBytes) ETV
attr interpolationmode none
attr title "packet pushed, vector(packetBytes)"
vector 92 Scenario.node[5].wlan[0].mac.queue queueLength:vector ETV
attr autoWarmupFilter false
attr interpolationmode sample-hold
attr source "warmup(count(packetPushed) - count(packetPulled) - count(packetRemoved) - count(packetDropped))"
attr title "queue length, vector"
attr type int
vector 93 Scenario.node[5].wlan[0].mac.queue packetPulled:vector(packetBytes) ETV
attr interpolationmode none
attr title "packet pulled, vector(packetBytes)"
vector 94 Scenario.node[5].wlan[0].mac.queue queueingTime:vector ETV
attr interpolationmode none
attr source queueingTime(packetPulled)
attr title "queueing times, vector"
attr unit s
vector 95 Scenario.node[5].wlan[0].mac sentDownPk:vector(packetBytes) ETV
attr interpolationmode none
attr source packetSentToLower
attr title "packets sent to lower layer, vector(packetBytes)"
vector 96 Scenario.node[5].wlan[0].mac rcvdPkFromLl:vector(packetBytes) ETV
attr interpolationmode none
attr source packetReceivedFromLower
attr title "packets received from lower layer, vector(packetBytes)"
vector 97 Scenario.node[5].wlan[0].mac passedUpPk:vector(packetBytes) ETV
attr interpolationmode none
attr source packetSentToUpper
attr title "packets passed to higher layer, vector(packetBytes)"
vector 98 Scenario.node[6].wlan[0].radio radioMode:vector ETV
attr interpolationmode sample-hold
attr source radioModeChanged
attr title "Radio mode, vector"
vector 99 Scenario.node[6].wlan[0].radio receptionState:vector ETV
attr interpolationmode sample-hold
attr source receptionStateChanged
attr title "Radio reception state, vector"
vector 100 Scenario.node[6].wlan[0].radio transmissionState:vector ETV
attr interpolationmode sample-hold
attr source transmissionStateChanged
attr title "Radio transmission state, vector"
vector 101 Scenario.node[6].ipv6.neighbourDiscovery startDad:vector ETV
attr title "DAD started, vector"
vector 102 Scenario.node[6].wlan[0].mac rcvdPkFromHl:vector(packetBytes) ETV
attr interpolationmode none
attr source packetReceivedFromUpper
attr title "packets received from higher layer, vector(packetBytes)"
vector 103 Scenario.node[6].wlan[0].mac.queue packetPushed:vector(packetBytes) ETV
attr interpolationmode none
attr title "packet pushed, vector(packetBytes)"
vector 104 Scenario.node[6].wlan[0].mac.queue queueLength:vector ETV
attr autoWarmupFilter false
attr interpolationmode sample-hold
attr source "warmup(count(packetPushed) - count(packetPulled) - count(packetRemoved) - count(packetDropped))"
attr title "queue length, vector"
attr type int
vector 105 Scenario.node[6].wlan[0].mac.queue packetPulled:vector(packetBytes) ETV
attr interpolationmode none
attr title "packet pulled, vector(packetBytes)"
vector 106 Scenario.node[6].wlan[0].mac.queue queueingTime:vector ETV
attr interpolationmode none
attr source queueingTime(packetPulled)
attr title "queueing times, vector"
attr unit s
vector 107 Scenario.node[6].wlan[0].mac sentDownPk:vector(packetBytes) ETV
attr interpolationmode none
attr source packetSentToLower
attr title "packets sent to lower layer, vector(packetBytes)"
vector 108 Scenario.node[1].wlan[0].mac rcvdPkFromLl:vector(packetBytes) ETV
attr interpolationmode none
attr source packetReceivedFromLower
attr title "packets received from lower layer, vector(packetBytes)"
vector 109 Scenario.node[1].wlan[0].mac passedUpPk:vector(packetBytes) ETV
attr interpolationmode none
attr source packetSentToUpper
attr title "packets passed to higher layer, vector(packetBytes)"
vector 110 Scenario.node[6].wlan[0].mac rcvdPkFromLl:vector(packetBytes) ETV
attr interpolationmode none
attr source packetReceivedFromLower
attr title "packets received from lower layer, vector(packetBytes)"
vector 111 Scenario.node[6].wlan[0].mac passedUpPk:vector(packetBytes) ETV
attr interpolationmode none
attr source packetSentToUpper
attr title "packets passed to higher layer, vector(packetBytes)"
vector 112 Scenario.node[7].wlan[0].radio radioMode:vector ETV
attr interpolationmode sample-hold
attr source radioModeChanged
attr title "Radio mode, vector"
vector 113 Scenario.node[7].wlan[0].radio receptionState:vector ETV
attr interpolationmode sample-hold
attr source receptionStateChanged
attr title "Radio reception state, vector"
vector 114 Scenario.node[7].wlan[0].radio transmissionState:vector ETV
attr interpolationmode sample-hold
attr source transmissionStateChanged
attr title "Radio transmission state, vector"
vector 115 Scenario.node[7].ipv6.neighbourDiscovery startDad:vector ETV
attr title "DAD started, vector"
vector 116 Scenario.node[7].wlan[0].mac rcvdPkFromHl:vector(packetBytes) ETV
attr interpolationmode none
attr source packetReceivedFromUpper
attr title "packets received from higher layer, vector(packetBytes)"
vector 117 Scenario.node[7].wlan[0].mac.queue packetPushed:vector(packetBytes) ETV
attr interpolationmode none
attr title "packet pushed, vector(packetBytes)"
vector 118 Scenario.node[7].wlan[0].mac.queue queueLength:vector ETV
attr autoWarmupFilter false
attr interpolationmode sample-hold
attr source "warmup(count(packetPushed) - count(packetPulled) - count(packetRemoved) - count(packetDropped))"
attr title "queue length, vector"
attr type int
vector 119 Scenario.node[7].wlan[0].mac.queue packetPulled:vector(packetBytes) ETV
attr interpolationmode none
attr title "packet pulled, vector(packetBytes)"
vector 120 Scenario.node[7].wlan[0].mac.queue queueingTime:vector ETV
attr interpolationmode none
attr source queueingTime(packetPulled)
attr title "queueing times, vector"
attr unit s
vector 121 Scenario.node[7].wlan[0].mac sentDownPk:vector(packetBytes) ETV
attr interpolationmode none
attr source packetSentToLower
attr title "packets sent to lower layer, vector(packetBytes)"
vector 122 Scenario.node[7].wlan[0].mac rcvdPkFromLl:vector(packetBytes) ETV
attr interpolationmode none
attr source packetReceivedFromLower
attr title "packets received from lower layer, vector(packetBytes)"
vector 123 Scenario.node[7].wlan[0].mac passedUpPk:vector(packetBytes) ETV
attr interpolationmode none
attr source packetSentToUpper
attr title "packets passed to higher layer, vector(packetBytes)"
vector 124 Scenario.node[8].wlan[0].radio radioMode:vector ETV
attr interpolationmode sample-hold
attr source radioModeChanged
attr title "Radio mode, vector"
vector 125 Scenario.node[8].wlan[0].radio receptionState:vector ETV
attr interpolationmode sample-hold
attr source receptionStateChanged
attr title "Radio reception state, vector"
vector 126 Scenario.node[8].wlan[0].radio transmissionState:vector ETV
attr interpolationmode sample-hold
attr source transmissionStateChanged
attr title "Radio transmission state, vector"
vector 127 Scenario.node[8].ipv6.neighbourDiscovery startDad:vector ETV
attr title "DAD started, vector"
vector 128 Scenario.node[8].wlan[0].mac rcvdPkFromHl:vector(packetBytes) ETV
attr interpolationmode none
attr source packetReceivedFromUpper
attr title "packets received from higher layer, vector(packetBytes)"
vector 129 Scenario.node[8].wlan[0].mac.queue packetPushed:vector(packetBytes) ETV
attr interpolationmode none
attr title "packet pushed, vector(packetBytes)"
vector 130 Scenario.node[8].wlan[0].mac.queue queueLength:vector ETV
attr autoWarmupFilter false
attr interpolationmode sample-hold
attr source "warmup(count(packetPushed) - count(packetPulled) - count(packetRemoved) - count(packetDropped))"
attr title "queue length, vector"
attr type int
vector 131 Scenario.node[8].wlan[0].mac.queue packetPulled:vector(packetBytes) ETV
attr interpolationmode none
attr title "packet pulled, vector(packetBytes)"
vector 132 Scenario.node[8].wlan[0].mac.queue queueingTime:vector ETV
attr interpolationmode none
attr source queueingTime(packetPulled)
attr title "queueing times, vector"
attr unit s
vector 133 Scenario.node[8].wlan[0].mac sentDownPk:vector(packetBytes) ETV
attr interpolationmode none
attr source packetSentToLower
attr title "packets sent to lower layer, vector(packetBytes)"
vector 134 Scenario.node[9].wlan[0].radio radioMode:vector ETV
attr interpolationmode sample-hold
attr source radioModeChanged
attr title "Radio mode, vector"
vector 135 Scenario.node[9].wlan[0].radio receptionState:vector ETV
attr interpolationmode sample-hold
attr source receptionStateChanged
attr title "Radio reception state, vector"
vector 136 Scenario.node[9].wlan[0].radio transmissionState:vector ETV
attr interpolationmode sample-hold
attr source transmissionStateChanged
attr title "Radio transmission state, vector"
vector 137 Scenario.node[9].ipv6.neighbourDiscovery startDad:vector ETV
attr title "DAD started, vector"
vector 138 Scenario.node[9].wlan[0].mac rcvdPkFromHl:vector(packetBytes) ETV
attr interpolationmode none
attr source packetReceivedFromUpper
attr title "packets received from higher layer, vector(packetBytes)"
vector 139 Scenario.node[9].wlan[0].mac.queue packetPushed:vector(packetBytes) ETV
attr interpolationmode none
attr title "packet pushed, vector(packetBytes)"
vector 140 Scenario.node[9].wlan[0].mac.queue queueLength:vector ETV
attr autoWarmupFilter false
attr interpolationmode sample-hold
attr source "warmup(count(packetPushed) - count(packetPulled) - count(packetRemoved) - count(packetDropped))"
attr title "queue length, vector"
attr type int
vector 141 Scenario.node[9].wlan[0].mac.queue packetPulled:vector(packetBytes) ETV
attr interpolationmode none
attr title "packet pulled, vector(packetBytes)"
vector 142 Scenario.node[9].wlan[0].mac.queue queueingTime:vector ETV
attr interpolationmode none
attr source queueingTime(packetPulled)
attr title "queueing times, vector"
attr unit s
vector 143 Scenario.node[9].wlan[0].mac sentDownPk:vector(packetBytes) ETV
attr interpolationmode none
attr source packetSentToLower
attr title "packets sent to lower layer, vector(packetBytes)"
vector 144 Scenario.node[10].wlan[0].radio radioMode:vector ETV
attr interpolationmode sample-hold
attr source radioModeChanged
attr title "Radio mode, vector"
vector 145 Scenario.node[10].wlan[0].radio receptionState:vector ETV
attr interpolationmode sample-hold
attr source receptionStateChanged
attr title "Radio reception state, vector"
vector 146 Scenario.node[10].wlan[0].radio transmissionState:vector ETV
attr interpolationmode sample-hold
attr source transmissionStateChanged
attr title "Radio transmission state, vector"
vector 147 Scenario.node[10].ipv6.neighbourDiscovery startDad:vector ETV
attr title "DAD started, vector"
vector 148 Scenario.node[10].wlan[0].mac rcvdPkFromHl:vector(packetBytes) ETV
attr interpolationmode none
attr source packetReceivedFromUpper
attr title "packets received from higher layer, vector(packetBytes)"
vector 149 Scenario.node[10].wlan[0].mac.queue packetPushed:vector(packetBytes) ETV
attr interpolationmode none
attr title "packet pushed, vector(packetBytes)"
vector 150 Scenario.node[10].wlan[0].mac.queue queueLength:vector ETV
attr autoWarmupFilter false
attr interpolationmode sample-hold
attr source "warmup(count(packetPushed) - count(packetPulled) - count(packetRemoved) - count(packetDropped))"
attr title "queue length, vector"
attr type int
vector 151 Scenario.node[10].wlan[0].mac.queue packetPulled:vector(packetBytes) ETV
attr interpolationmode none
attr title "packet pulled, vector(packetBytes)"
vector 152 Scenario.node[10].wlan[0].mac.queue queueingTime:vector ETV
attr interpolationmode none
attr source queueingTime(packetPulled)
attr title "queueing times, vector"
attr unit s
vector 153 Scenario.node[10].wlan[0].mac sentDownPk:vector(packetBytes) ETV
attr interpolationmode none
attr source packetSentToLower
attr title "packets sent to lower layer, vector(packetBytes)"
vector 154 Scenario.node[10].wlan[0].mac rcvdPkFromLl:vector(packetBytes) ETV
attr interpolationmode none
attr source packetReceivedFromLower
attr title "packets received from lower layer, vector(packetBytes)"
vector 155 Scenario.node[10].wlan[0].mac passedUpPk:vector(packetBytes) ETV
attr interpolationmode none
attr source packetSentToUpper
attr title "packets passed to higher layer, vector(packetBytes)"
vector 156 Scenario.node[11].wlan[0].radio radioMode:vector ETV
attr interpolationmode sample-hold
attr source radioModeChanged
attr title "Radio mode, vector"
vector 157 Scenario.node[11].wlan[0].radio receptionState:vector ETV
attr interpolationmode sample-hold
attr source receptionStateChanged
attr title "Radio reception state, vector"
vector 158 Scenario.node[11].wlan[0].radio transmissionState:vector ETV
attr interpolationmode sample-hold
attr source transmissionStateChanged
attr title "Radio transmission state, vector"
vector 159 Scenario.node[11].wlan[0].mac rcvdPkFromLl:vector(packetBytes) ETV
attr interpolationmode none
attr source packetReceivedFromLower
attr title "packets received from lower layer, vector(packetBytes)"
vector 160 Scenario.node[11].wlan[0].mac passedUpPk:vector(packetBytes) ETV
attr interpolationmode none
attr source packetSentToUpper
attr title "packets passed to higher layer, vector(packetBytes)"
vector 161 Scenario.node[11].ipv6.neighbourDiscovery startDad:vector ETV
attr title "DAD started, vector"
vector 162 Scenario.node[11].wlan[0].mac rcvdPkFromHl:vector(packetBytes) ETV
attr interpolationmode none
attr source packetReceivedFromUpper
attr title "packets received from higher layer, vector(packetBytes)"
vector 163 Scenario.node[11].wlan[0].mac.queue packetPushed:vector(packetBytes) ETV
attr interpolationmode none
attr title "packet pushed, vector(packetBytes)"
vector 164 Scenario.node[11].wlan[0].mac.queue queueLength:vector ETV
attr autoWarmupFilter false
attr interpolationmode sample-hold
attr source "warmup(count(packetPushed) - count(packetPulled) - count(packetRemoved) - count(packetDropped))"
attr title "queue length, vector"
attr type int
vector 165 Scenario.node[11].wlan[0].mac.queue packetPulled:vector(packetBytes) ETV
attr interpolationmode none
attr title "packet pulled, vector(packetBytes)"
vector 166 Scenario.node[11].wlan[0].mac.queue queueingTime:vector ETV
attr interpolationmode none
attr source queueingTime(packetPulled)
attr title "queueing times, vector"
attr unit s
vector 167 Scenario.node[11].wlan[0].mac sentDownPk:vector(packetBytes) ETV
attr interpolationmode none
attr source packetSentToLower
attr title "packets sent to lower layer, vector(packetBytes)"
vector 168 Scenario.node[12].wlan[0].radio radioMode:vector ETV
attr interpolationmode sample-hold
attr source radioModeChanged
attr title "Radio mode, vector"
vector 169 Scenario.node[12].wlan[0].radio receptionState:vector ETV
attr interpolationmode sample-hold
attr source receptionStateChanged
attr title "Radio reception state, vector"
vector 170 Scenario.node[12].wlan[0].radio transmissionState:vector ETV
attr interpolationmode sample-hold
attr source transmissionStateChanged
attr title "Radio transmission state, vector"
vector 171 Scenario.node[12].ipv6.neighbourDiscovery startDad:vector ETV
attr title "DAD started, vector"
vector 172 Scenario.node[12].wlan[0].mac rcvdPkFromHl:vector(packetBytes) ETV
attr interpolationmode none
attr source packetReceivedFromUpper
attr title "packets received from higher layer, vector(packetBytes)"
vector 173 Scenario.node[12].wlan[0].mac.queue packetPushed:vector(packetBytes) ETV
attr interpolationmode none
attr title "packet pushed, vector(packetBytes)"
vector 174 Scenario.node[12].wlan[0].mac.queue queueLength:vector ETV
attr autoWarmupFilter false
attr interpolationmode sample-hold
attr source "warmup(count(packetPushed) - count(packetPulled) - count(packetRemoved) - count(packetDropped))"
attr title "queue length, vector"
attr type int
vector 175 Scenario.node[12].wlan[0].mac.queue packetPulled:vector(packetBytes) ETV
attr interpolationmode none
attr title "packet pulled, vector(packetBytes)"
vector 176 Scenario.node[12].wlan[0].mac.queue queueingTime:vector ETV
attr interpolationmode none
attr source queueingTime(packetPulled)
attr title "queueing times, vector"
attr unit s
vector 177 Scenario.node[12].wlan[0].mac sentDownPk:vector(packetBytes) ETV
attr interpolationmode none
attr source packetSentToLower
attr title "packets sent to lower layer, vector(packetBytes)"
vector 178 Scenario.node[4].wlan[0].mac rcvdPkFromLl:vector(packetBytes) ETV
attr interpolationmode none
attr source packetReceivedFromLower
attr title "packets received from lower layer, vector(packetBytes)"
vector 179 Scenario.node[4].wlan[0].mac passedUpPk:vector(packetBytes) ETV
attr interpolationmode none
attr source packetSentToUpper
attr title "packets passed to higher layer, vector(packetBytes)"
vector 180 Scenario.node[13].wlan[0].radio radioMode:vector ETV
attr interpolationmode sample-hold
attr source radioModeChanged
attr title "Radio mode, vector"
vector 181 Scenario.node[13].wlan[0].radio receptionState:vector ETV
attr interpolationmode sample-hold
attr source receptionStateChanged
attr title "Radio reception state, vector"
vector 182 Scenario.node[13].wlan[0].radio transmissionState:vector ETV
attr interpolationmode sample-hold
attr source transmissionStateChanged
attr title "Radio transmission state, vector"
vector 183 Scenario.node[13].ipv6.neighbourDiscovery startDad:vector ETV
attr title "DAD started, vector"
vector 184 Scenario.node[13].wlan[0].mac rcvdPkFromHl:vector(packetBytes) ETV
attr interpolationmode none
attr source packetReceivedFromUpper
attr title "packets received from higher layer, vector(packetBytes)"
vector 185 Scenario.node[13].wlan[0].mac.queue packetPushed:vector(packetBytes) ETV
attr interpolationmode none
attr title "packet pushed, vector(packetBytes)"
vector 186 Scenario.node[13].wlan[0].mac.queue queueLength:vector ETV
attr autoWarmupFilter false
attr interpolationmode sample-hold
attr source "warmup(count(packetPushed) - count(packetPulled) - count(packetRemoved) - count(packetDropped))"
attr title "queue length, vector"
attr type int
vector 187 Scenario.node[13].wlan[0].mac.queue packetPulled:vector(packetBytes) ETV
attr interpolationmode none
attr title "packet pulled, vector(packetBytes)"
vector 188 Scenario.node[13].wlan[0].mac.queue queueingTime:vector ETV
attr interpolationmode none
attr source queueingTime(packetPulled)
attr title "queueing times, vector"
attr unit s
vector 189 Scenario.node[13].wlan[0].mac sentDownPk:vector(packetBytes) ETV
attr interpolationmode none
attr source packetSentToLower
attr title "packets sent to lower layer, vector(packetBytes)"
vector 190 Scenario.node[9].wlan[0].mac rcvdPkFromLl:vector(packetBytes) ETV
attr interpolationmode none
attr source packetReceivedFromLower
attr title "packets received from lower layer, vector(packetBytes)"
vector 191 Scenario.node[9].wlan[0].mac passedUpPk:vector(packetBytes) ETV
attr interpolationmode none
attr source packetSentToUpper
attr title "packets passed to higher layer, vector(packetBytes)"
vector 192 Scenario.node[8].wlan[0].mac rcvdPkFromLl:vector(packetBytes) ETV
attr interpolationmode none
attr source packetReceivedFromLower
attr title "packets received from lower layer, vector(packetBytes)"
vector 193 Scenario.node[8].wlan[0].mac passedUpPk:vector(packetBytes) ETV
attr interpolationmode none
attr source packetSentToUpper
attr title "packets passed to higher layer, vector(packetBytes)"
vector 194 Scenario.node[12].wlan[0].mac rcvdPkFromLl:vector(packetBytes) ETV
attr interpolationmode none
attr source packetReceivedFromLower
attr title "packets received from lower layer, vector(packetBytes)"
vector 195 Scenario.node[12].wlan[0].mac passedUpPk:vector(packetBytes) ETV
attr interpolationmode none
attr source packetSentToUpper
attr title "packets passed to higher layer, vector(packetBytes)"
vector 196 Scenario.node[13].wlan[0].mac rcvdPkFromLl:vector(packetBytes) ETV
attr interpolationmode none
attr source packetReceivedFromLower
attr title "packets received from lower layer, vector(packetBytes)"
vector 197 Scenario.node[13].wlan[0].mac passedUpPk:vector(packetBytes) ETV
attr interpolationmode none
attr source packetSentToUpper
attr title "packets passed to higher layer, vector(packetBytes)"
vector 198 Scenario.node[14].wlan[0].radio radioMode:vector ETV
attr interpolationmode sample-hold
attr source radioModeChanged
attr title "Radio mode, vector"
vector 199 Scenario.node[14].wlan[0].radio receptionState:vector ETV
attr interpolationmode sample-hold
attr source receptionStateChanged
attr title "Radio reception state, vector"
vector 200 Scenario.node[14].wlan[0].radio transmissionState:vector ETV
attr interpolationmode sample-hold
attr source transmissionStateChanged
attr title "Radio transmission state, vector"
vector 201 Scenario.node[14].wlan[0].mac rcvdPkFromLl:vector(packetBytes) ETV
attr interpolationmode none
attr source packetReceivedFromLower
attr title "packets received from lower layer, vector(packetBytes)"
vector 202 Scenario.node[14].wlan[0].mac packetDropNotAddressedToUs:vector(packetBytes) ETV
attr interpolationmode none
attr source packetDropReasonIsNotAddressedToUs(packetDropped)
attr title "packet drop: not addressed to us, vector(packetBytes)"
vector 203 Scenario.node[14].ipv6.neighbourDiscovery startDad:vector ETV
attr title "DAD started, vector"
vector 204 Scenario.node[14].wlan[0].mac rcvdPkFromHl:vector(packetBytes) ETV
attr interpolationmode none
attr source packetReceivedFromUpper
attr title "packets received from higher layer, vector(packetBytes)"
vector 205 Scenario.node[14].wlan[0].mac.queue packetPushed:vector(packetBytes) ETV
attr interpolationmode none
attr title "packet pushed, vector(packetBytes)"
vector 206 Scenario.node[14].wlan[0].mac.queue queueLength:vector ETV
attr autoWarmupFilter false
attr interpolationmode sample-hold
attr source "warmup(count(packetPushed) - count(packetPulled) - count(packetRemoved) - count(packetDropped))"
attr title "queue length, vector"
attr type int
vector 207 Scenario.node[14].wlan[0].mac.queue packetPulled:vector(packetBytes) ETV
attr interpolationmode none
attr title "packet pulled, vector(packetBytes)"
vector 208 Scenario.node[14].wlan[0].mac.queue queueingTime:vector ETV
attr interpolationmode none
attr source queueingTime(packetPulled)
attr title "queueing times, vector"
attr unit s
vector 209 Scenario.node[14].wlan[0].mac sentDownPk:vector(packetBytes) ETV
attr interpolationmode none
attr source packetSentToLower
attr title "packets sent to lower layer, vector(packetBytes)"
vector 210 Scenario.node[15].wlan[0].radio radioMode:vector ETV
attr interpolationmode sample-hold
attr source radioModeChanged
attr title "Radio mode, vector"
vector 211 Scenario.node[15].wlan[0].radio receptionState:vector ETV
attr interpolationmode sample-hold
attr source receptionStateChanged
attr title "Radio reception state, vector"
vector 212 Scenario.node[15].wlan[0].radio transmissionState:vector ETV
attr interpolationmode sample-hold
attr source transmissionStateChanged
attr title "Radio transmission state, vector"
vector 213 Scenario.node[15].ipv6.neighbourDiscovery startDad:vector ETV
attr title "DAD started, vector"
vector 214 Scenario.node[15].wlan[0].mac rcvdPkFromHl:vector(packetBytes) ETV
attr interpolationmode none
attr source packetReceivedFromUpper
attr title "packets received from higher layer, vector(packetBytes)"
vector 215 Scenario.node[15].wlan[0].mac.queue packetPushed:vector(packetBytes) ETV
attr interpolationmode none
attr title "packet pushed, vector(packetBytes)"
vector 216 Scenario.node[15].wlan[0].mac.queue queueLength:vector ETV
attr autoWarmupFilter false
attr interpolationmode sample-hold
attr source "warmup(count(packetPushed) - count(packetPulled) - count(packetRemoved) - count(packetDropped))"
attr title "queue length, vector"
attr type int
vector 217 Scenario.node[15].wlan[0].mac.queue packetPulled:vector(packetBytes) ETV
attr interpolationmode none
attr title "packet pulled, vector(packetBytes)"
vector 218 Scenario.node[15].wlan[0].mac.queue queueingTime:vector ETV
attr interpolationmode none
attr source queueingTime(packetPulled)
attr title "queueing times, vector"
attr unit s
vector 219 Scenario.node[15].wlan[0].mac sentDownPk:vector(packetBytes) ETV
attr interpolationmode none
attr source packetSentToLower
attr title "packets sent to lower layer, vector(packetBytes)"
vector 220 Scenario.node[14].wlan[0].mac passedUpPk:vector(packetBytes) ETV
attr interpolationmode none
attr source packetSentToUpper
attr title "packets passed to higher layer, vector(packetBytes)"
vector 221 Scenario.node[16].wlan[0].radio radioMode:vector ETV
attr interpolationmode sample-hold
attr source radioModeChanged
attr title "Radio mode, vector"
vector 222 Scenario.node[16].wlan[0].radio receptionState:vector ETV
attr interpolationmode sample-hold
attr source receptionStateChanged
attr title "Radio reception state, vector"
vector 223 Scenario.node[16].wlan[0].radio transmissionState:vector ETV
attr interpolationmode sample-hold
attr source transmissionStateChanged
attr title "Radio transmission state, vector"
vector 224 Scenario.node[16].ipv6.neighbourDiscovery startDad:vector ETV
attr title "DAD started, vector"
vector 225 Scenario.node[16].wlan[0].mac rcvdPkFromHl:vector(packetBytes) ETV
attr interpolationmode none
attr source packetReceivedFromUpper
attr title "packets received from higher layer, vector(packetBytes)"
vector 226 Scenario.node[16].wlan[0].mac.queue packetPushed:vector(packetBytes) ETV
attr interpolationmode none
attr title "packet pushed, vector(packetBytes)"
vector 227 Scenario.node[16].wlan[0].mac.queue queueLength:vector ETV
attr autoWarmupFilter false
attr interpolationmode sample-hold
attr source "warmup(count(packetPushed) - count(packetPulled) - count(packetRemoved) - count(packetDropped))"
attr title "queue length, vector"
attr type int
vector 228 Scenario.node[16].wlan[0].mac.queue packetPulled:vector(packetBytes) ETV
attr interpolationmode none
attr title "packet pulled, vector(packetBytes)"
vector 229 Scenario.node[16].wlan[0].mac.queue queueingTime:vector ETV
attr interpolationmode none
attr source queueingTime(packetPulled)
attr title "queueing times, vector"
attr unit s
vector 230 Scenario.node[16].wlan[0].mac sentDownPk:vector(packetBytes) ETV
attr interpolationmode none
attr source packetSentToLower
attr title "packets sent to lower layer, vector(packetBytes)"
vector 231 Scenario.node[16].wlan[0].mac rcvdPkFromLl:vector(packetBytes) ETV
attr interpolationmode none
attr source packetReceivedFromLower
attr title "packets received from lower layer, vector(packetBytes)"
vector 232 Scenario.node[16].wlan[0].mac passedUpPk:vector(packetBytes) ETV
attr interpolationmode none
attr source packetSentToUpper
attr title "packets passed to higher layer, vector(packetBytes)"
vector 233 Scenario.node[17].wlan[0].radio radioMode:vector ETV
attr interpolationmode sample-hold
attr source radioModeChanged
attr title "Radio mode, vector"
vector 234 Scenario.node[17].wlan[0].radio receptionState:vector ETV
attr interpolationmode sample-hold
attr source receptionStateChanged
attr title "Radio reception state, vector"
vector 235 Scenario.node[17].wlan[0].radio transmissionState:vector ETV
attr interpolationmode sample-hold
attr source transmissionStateChanged
attr title "Radio transmission state, vector"
vector 236 Scenario.node[17].wlan[0].mac rcvdPkFromLl:vector(packetBytes) ETV
attr interpolationmode none
attr source packetReceivedFromLower
attr title "packets received from lower layer, vector(packetBytes)"
vector 237 Scenario.node[17].wlan[0].mac passedUpPk:vector(packetBytes) ETV
attr interpolationmode none
attr source packetSentToUpper
attr title "packets passed to higher layer, vector(packetBytes)"
vector 238 Scenario.node[17].ipv6.neighbourDiscovery startDad:vector ETV
attr title "DAD started, vector"
vector 239 Scenario.node[17].wlan[0].mac rcvdPkFromHl:vector(packetBytes) ETV
attr interpolationmode none
attr source packetReceivedFromUpper
attr title "packets received from higher layer, vector(packetBytes)"
vector 240 Scenario.node[17].wlan[0].mac.queue packetPushed:vector(packetBytes) ETV
attr interpolationmode none
attr title "packet pushed, vector(packetBytes)"
vector 241 Scenario.node[17].wlan[0].mac.queue queueLength:vector ETV
attr autoWarmupFilter false
attr interpolationmode sample-hold
attr source "warmup(count(packetPushed) - count(packetPulled) - count(packetRemoved) - count(packetDropped))"
attr title "queue length, vector"
attr type int
vector 242 Scenario.node[17].wlan[0].mac.queue packetPulled:vector(packetBytes) ETV
attr interpolationmode none
attr title "packet pulled, vector(packetBytes)"
vector 243 Scenario.node[17].wlan[0].mac.queue queueingTime:vector ETV
attr interpolationmode none
attr source queueingTime(packetPulled)
attr title "queueing times, vector"
attr unit s
vector 244 Scenario.node[17].wlan[0].mac sentDownPk:vector(packetBytes) ETV
attr interpolationmode none
attr source packetSentToLower
attr title "packets sent to lower layer, vector(packetBytes)"
vector 245 Scenario.node[15].wlan[0].mac rcvdPkFromLl:vector(packetBytes) ETV
attr interpolationmode none
attr source packetReceivedFromLower
attr title "packets received from lower layer, vector(packetBytes)"
vector 246 Scenario.node[15].wlan[0].mac passedUpPk:vector(packetBytes) ETV
attr interpolationmode none
attr source packetSentToUpper
attr title "packets passed to higher layer, vector(packetBytes)"
vector 247 Scenario.node[14].wlan[0].mac packetDropIncorrectlyReceived:vector(packetBytes) ETV
attr interpolationmode none
attr source packetDropReasonIsIncorrectlyReceived(packetDropped)
attr title "packet drop: incorrectly received, vector(packetBytes)"
vector 248 Scenario.node[18].wlan[0].radio radioMode:vector ETV
attr interpolationmode sample-hold
attr source radioModeChanged
attr title "Radio mode, vector"
vector 249 Scenario.node[18].wlan[0].radio receptionState:vector ETV
attr interpolationmode sample-hold
attr source receptionStateChanged
attr title "Radio reception state, vector"
vector 250 Scenario.node[18].wlan[0].radio transmissionState:vector ETV
attr interpolationmode sample-hold
attr source transmissionStateChanged
attr title "Radio transmission state, vector"
vector 251 Scenario.node[18].wlan[0].mac rcvdPkFromLl:vector(packetBytes) ETV
attr interpolationmode none
attr source packetReceivedFromLower
attr title "packets received from lower layer, vector(packetBytes)"
vector 252 Scenario.node[18].wlan[0].mac passedUpPk:vector(packetBytes) ETV
attr interpolationmode none
attr source packetSentToUpper
attr title "packets passed to higher layer, vector(packetBytes)"
vector 253 Scenario.node[18].ipv6.neighbourDiscovery startDad:vector ETV
attr title "DAD started, vector"
vector 254 Scenario.node[18].wlan[0].mac rcvdPkFromHl:vector(packetBytes) ETV
attr interpolationmode none
attr source packetReceivedFromUpper
attr title "packets received from higher layer, vector(packetBytes)"
vector 255 Scenario.node[18].wlan[0].mac.queue packetPushed:vector(packetBytes) ETV
attr interpolationmode none
attr title "packet pushed, vector(packetBytes)"
vector 256 Scenario.node[18].wlan[0].mac.queue queueLength:vector ETV
attr autoWarmupFilter false
attr interpolationmode sample-hold
attr source "warmup(count(packetPushed) - count(packetPulled) - count(packetRemoved) - count(packetDropped))"
attr title "queue length, vector"
attr type int
vector 257 Scenario.node[18].wlan[0].mac.queue packetPulled:vector(packetBytes) ETV
attr interpolationmode none
attr title "packet pulled, vector(packetBytes)"
vector 258 Scenario.node[18].wlan[0].mac.queue queueingTime:vector ETV
attr interpolationmode none
attr source queueingTime(packetPulled)
attr title "queueing times, vector"
attr unit s
vector 259 Scenario.node[18].wlan[0].mac sentDownPk:vector(packetBytes) ETV
attr interpolationmode none
attr source packetSentToLower
attr title "packets sent to lower layer, vector(packetBytes)"
vector 260 Scenario.node[19].wlan[0].radio radioMode:vector ETV
attr interpolationmode sample-hold
attr source radioModeChanged
attr title "Radio mode, vector"
vector 261 Scenario.node[19].wlan[0].radio receptionState:vector ETV
attr interpolationmode sample-hold
attr source receptionStateChanged
attr title "Radio reception state, vector"
vector 262 Scenario.node[19].wlan[0].radio transmissionState:vector ETV
attr interpolationmode sample-hold
attr source transmissionStateChanged
attr title "Radio transmission state, vector"
vector 263 Scenario.node[18].wlan[0].mac packetDropNotAddressedToUs:vector(packetBytes) ETV
attr interpolationmode none
attr source packetDropReasonIsNotAddressedToUs(packetDropped)
attr title "packet drop: not addressed to us, vector(packetBytes)"
vector 264 Scenario.node[15].wlan[0].mac packetDropNotAddressedToUs:vector(packetBytes) ETV
attr interpolationmode none
attr source packetDropReasonIsNotAddressedToUs(packetDropped)
attr title "packet drop: not addressed to us, vector(packetBytes)"
vector 265 Scenario.node[19].ipv6.neighbourDiscovery startDad:vector ETV
attr title "DAD started, vector"
vector 266 Scenario.node[19].wlan[0].mac rcvdPkFromHl:vector(packetBytes) ETV
attr interpolationmode none
attr source packetReceivedFromUpper
attr title "packets received from higher layer, vector(packetBytes)"
vector 267 Scenario.node[19].wlan[0].mac.queue packetPushed:vector(packetBytes) ETV
attr interpolationmode none
attr title "packet pushed, vector(packetBytes)"
vector 268 Scenario.node[19].wlan[0].mac.queue queueLength:vector ETV
attr autoWarmupFilter false
attr interpolationmode sample-hold
attr source "warmup(count(packetPushed) - count(packetPulled) - count(packetRemoved) - count(packetDropped))"
attr title "queue length, vector"
attr type int
vector 269 Scenario.node[19].wlan[0].mac.queue packetPulled:vector(packetBytes) ETV
attr interpolationmode none
attr title "packet pulled, vector(packetBytes)"
vector 270 Scenario.node[19].wlan[0].mac.queue queueingTime:vector ETV
attr interpolationmode none
attr source queueingTime(packetPulled)
attr title "queueing times, vector"
attr unit s
vector 271 Scenario.node[19].wlan[0].mac sentDownPk:vector(packetBytes) ETV
attr interpolationmode none
attr source packetSentToLower
attr title "packets sent to lower layer, vector(packetBytes)"
vector 272 Scenario.node[20].wlan[0].radio radioMode:vector ETV
attr interpolationmode sample-hold
attr source radioModeChanged
attr title "Radio mode, vector"
vector 273 Scenario.node[20].wlan[0].radio receptionState:vector ETV
attr interpolationmode sample-hold
attr source receptionStateChanged
attr title "Radio reception state, vector"
vector 274 Scenario.node[20].wlan[0].radio transmissionState:vector ETV
attr interpolationmode sample-hold
attr source transmissionStateChanged
attr title "Radio transmission state, vector"
vector 275 Scenario.node[20].ipv6.neighbourDiscovery startDad:vector ETV
attr title "DAD started, vector"
vector 276 Scenario.node[20].wlan[0].mac rcvdPkFromHl:vector(packetBytes) ETV
attr interpolationmode none
attr source packetReceivedFromUpper
attr title "packets received from higher layer, vector(packetBytes)"
vector 277 Scenario.node[20].wlan[0].mac.queue packetPushed:vector(packetBytes) ETV
attr interpolationmode none
attr title "packet pushed, vector(packetBytes)"
vector 278 Scenario.node[20].wlan[0].mac.queue queueLength:vector ETV
attr autoWarmupFilter false
attr interpolationmode sample-hold
attr source "warmup(count(packetPushed) - count(packetPulled) - count(packetRemoved) - count(packetDropped))"
attr title "queue length, vector"
attr type int
vector 279 Scenario.node[20].wlan[0].mac.queue packetPulled:vector(packetBytes) ETV
attr interpolationmode none
attr title "packet pulled, vector(packetBytes)"
vector 280 Scenario.node[20].wlan[0].mac.queue queueingTime:vector ETV
attr interpolationmode none
attr source queueingTime(packetPulled)
attr title "queueing times, vector"
attr unit s
vector 281 Scenario.node[20].wlan[0].mac sentDownPk:vector(packetBytes) ETV
attr interpolationmode none
attr source packetSentToLower
attr title "packets sent to lower layer, vector(packetBytes)"
vector 282 Scenario.node[20].wlan[0].mac rcvdPkFromLl:vector(packetBytes) ETV
attr interpolationmode none
attr source packetReceivedFromLower
attr title "packets received from lower layer, vector(packetBytes)"
vector 283 Scenario.node[20].wlan[0].mac passedUpPk:vector(packetBytes) ETV
attr interpolationmode none
attr source packetSentToUpper
attr title "packets passed to higher layer, vector(packetBytes)"
vector 284 Scenario.node[21].wlan[0].radio radioMode:vector ETV
attr interpolationmode sample-hold
attr source radioModeChanged
attr title "Radio mode, vector"
vector 285 Scenario.node[21].wlan[0].radio receptionState:vector ETV
attr interpolationmode sample-hold
attr source receptionStateChanged
attr title "Radio reception state, vector"
vector 286 Scenario.node[21].wlan[0].radio transmissionState:vector ETV
attr interpolationmode sample-hold
attr source transmissionStateChanged
attr title "Radio transmission state, vector"
vector 287 Scenario.node[21].wlan[0].mac rcvdPkFromLl:vector(packetBytes) ETV
attr interpolationmode none
attr source packetReceivedFromLower
attr title "packets received from lower layer, vector(packetBytes)"
vector 288 Scenario.node[21].wlan[0].mac passedUpPk:vector(packetBytes) ETV
attr interpolationmode none
attr source packetSentToUpper
attr title "packets passed to higher layer, vector(packetBytes)"
vector 289 Scenario.node[19].wlan[0].mac rcvdPkFromLl:vector(packetBytes) ETV
attr interpolationmode none
attr source packetReceivedFromLower
attr title "packets received from lower layer, vector(packetBytes)"
vector 290 Scenario.node[19].wlan[0].mac passedUpPk:vector(packetBytes) ETV
attr interpolationmode none
attr source packetSentToUpper
attr title "packets passed to higher layer, vector(packetBytes)"
vector 291 Scenario.node[21].ipv6.neighbourDiscovery startDad:vector ETV
attr title "DAD started, vector"
vector 292 Scenario.node[21].wlan[0].mac rcvdPkFromHl:vector(packetBytes) ETV
attr interpolationmode none
attr source packetReceivedFromUpper
attr title "packets received from higher layer, vector(packetBytes)"
vector 293 Scenario.node[21].wlan[0].mac.queue packetPushed:vector(packetBytes) ETV
attr interpolationmode none
attr title "packet pushed, vector(packetBytes)"
vector 294 Scenario.node[21].wlan[0].mac.queue queueLength:vector ETV
attr autoWarmupFilter false
attr interpolationmode sample-hold
attr source "warmup(count(packetPushed) - count(packetPulled) - count(packetRemoved) - count(packetDropped))"
attr title "queue length, vector"
attr type int
vector 295 Scenario.node[21].wlan[0].mac.queue packetPulled:vector(packetBytes) ETV
attr interpolationmode none
attr title "packet pulled, vector(packetBytes)"
vector 296 Scenario.node[21].wlan[0].mac.queue queueingTime:vector ETV
attr interpolationmode none
attr source queueingTime(packetPulled)
attr title "queueing times, vector"
attr unit s
vector 297 Scenario.node[21].wlan[0].mac sentDownPk:vector(packetBytes) ETV
attr interpolationmode none
attr source packetSentToLower
attr title "packets sent to lower layer, vector(packetBytes)"
vector 298 Scenario.node[22].wlan[0].radio radioMode:vector ETV
attr interpolationmode sample-hold
attr source radioModeChanged
attr title "Radio mode, vector"
vector 299 Scenario.node[22].wlan[0].radio receptionState:vector ETV
attr interpolationmode sample-hold
attr source receptionStateChanged
attr title "Radio reception state, vector"
vector 300 Scenario.node[22].wlan[0].radio transmissionState:vector ETV
attr interpolationmode sample-hold
attr source transmissionStateChanged
attr title "Radio transmission state, vector"
vector 301 Scenario.node[22].ipv6.neighbourDiscovery startDad:vector ETV
attr title "DAD started, vector"
vector 302 Scenario.node[22].wlan[0].mac rcvdPkFromHl:vector(packetBytes) ETV
attr interpolationmode none
attr source packetReceivedFromUpper
attr title "packets received from higher layer, vector(packetBytes)"
vector 303 Scenario.node[22].wlan[0].mac.queue packetPushed:vector(packetBytes) ETV
attr interpolationmode none
attr title "packet pushed, vector(packetBytes)"
vector 304 Scenario.node[22].wlan[0].mac.queue queueLength:vector ETV
attr autoWarmupFilter false
attr interpolationmode sample-hold
attr source "warmup(count(packetPushed) - count(packetPulled) - count(packetRemoved) - count(packetDropped))"
attr title "queue length, vector"
attr type int
vector 305 Scenario.node[22].wlan[0].mac.queue packetPulled:vector(packetBytes) ETV
attr interpolationmode none
attr title "packet pulled, vector(packetBytes)"
vector 306 Scenario.node[22].wlan[0].mac.queue queueingTime:vector ETV
attr interpolationmode none
attr source queueingTime(packetPulled)
attr title "queueing times, vector"
attr unit s
vector 307 Scenario.node[22].wlan[0].mac sentDownPk:vector(packetBytes) ETV
attr interpolationmode none
attr source packetSentToLower
attr title "packets sent to lower layer, vector(packetBytes)"
vector 308 Scenario.node[8].wlan[0].mac packetDropIncorrectlyReceived:vector(packetBytes) ETV
attr interpolationmode none
attr source packetDropReasonIsIncorrectlyReceived(packetDropped)
attr title "packet drop: incorrectly received, vector(packetBytes)"
vector 309 Scenario.node[13].wlan[0].mac packetDropIncorrectlyReceived:vector(packetBytes) ETV
attr interpolationmode none
attr source packetDropReasonIsIncorrectlyReceived(packetDropped)
attr title "packet drop: incorrectly received, vector(packetBytes)"
vector 310 Scenario.host[1].wlan[0].mac packetDropIncorrectlyReceived:vector(packetBytes) ETV
attr interpolationmode none
attr source packetDropReasonIsIncorrectlyReceived(packetDropped)
attr title "packet drop: incorrectly received, vector(packetBytes)"
vector 311 Scenario.node[18].wlan[0].mac packetDropIncorrectlyReceived:vector(packetBytes) ETV
attr interpolationmode none
attr source packetDropReasonIsIncorrectlyReceived(packetDropped)
attr title "packet drop: incorrectly received, vector(packetBytes)"
vector 312 Scenario.node[5].wlan[0].mac packetDropIncorrectlyReceived:vector(packetBytes) ETV
attr interpolationmode none
attr source packetDropReasonIsIncorrectlyReceived(packetDropped)
attr title "packet drop: incorrectly received, vector(packetBytes)"
vector 313 Scenario.node[23].wlan[0].radio radioMode:vector ETV
attr interpolationmode sample-hold
attr source radioModeChanged
attr title "Radio mode, vector"
vector 314 Scenario.node[23].wlan[0].radio receptionState:vector ETV
attr interpolationmode sample-hold
attr source receptionStateChanged
attr title "Radio reception state, vector"
vector 315 Scenario.node[23].wlan[0].radio transmissionState:vector ETV
attr interpolationmode sample-hold
attr source transmissionStateChanged
attr title "Radio transmission state, vector"
vector 316 Scenario.node[23].wlan[0].mac rcvdPkFromLl:vector(packetBytes) ETV
attr interpolationmode none
attr source packetReceivedFromLower
attr title "packets received from lower layer, vector(packetBytes)"
vector 317 Scenario.node[23].wlan[0].mac packetDropNotAddressedToUs:vector(packetBytes) ETV
attr interpolationmode none
attr source packetDropReasonIsNotAddressedToUs(packetDropped)
attr title "packet drop: not addressed to us, vector(packetBytes)"
vector 318 Scenario.node[21].wlan[0].mac packetDropIncorrectlyReceived:vector(packetBytes) ETV
attr interpolationmode none
attr source packetDropReasonIsIncorrectlyReceived(packetDropped)
attr title "packet drop: incorrectly received, vector(packetBytes)"
vector 319 Scenario.node[9].wlan[0].mac packetDropIncorrectlyReceived:vector(packetBytes) ETV
attr interpolationmode none
attr source packetDropReasonIsIncorrectlyReceived(packetDropped)
attr title "packet drop: incorrectly received, vector(packetBytes)"
vector 320 Scenario.node[23].ipv6.neighbourDiscovery startDad:vector ETV
attr title "DAD started, vector"
vector 321 Scenario.node[23].wlan[0].mac rcvdPkFromHl:vector(packetBytes) ETV
attr interpolationmode none
attr source packetReceivedFromUpper
attr title "packets received from higher layer, vector(packetBytes)"
vector 322 Scenario.node[23].wlan[0].mac.queue packetPushed:vector(packetBytes) ETV
attr interpolationmode none
attr title "packet pushed, vector(packetBytes)"
vector 323 Scenario.node[23].wlan[0].mac.queue queueLength:vector ETV
attr autoWarmupFilter false
attr interpolationmode sample-hold
attr source "warmup(count(packetPushed) - count(packetPulled) - count(packetRemoved) - count(packetDropped))"
attr title "queue length, vector"
attr type int
vector 324 Scenario.node[23].wlan[0].mac.queue packetPulled:vector(packetBytes) ETV
attr interpolationmode none
attr title "packet pulled, vector(packetBytes)"
vector 325 Scenario.node[23].wlan[0].mac.queue queueingTime:vector ETV
attr interpolationmode none
attr source queueingTime(packetPulled)
attr title "queueing times, vector"
attr unit s
vector 326 Scenario.node[23].wlan[0].mac sentDownPk:vector(packetBytes) ETV
attr interpolationmode none
attr source packetSentToLower
attr title "packets sent to lower layer, vector(packetBytes)"
vector 327 Scenario.node[23].wlan[0].mac passedUpPk:vector(packetBytes) ETV
attr interpolationmode none
attr source packetSentToUpper
attr title "packets passed to higher layer, vector(packetBytes)"
vector 328 Scenario.node[24].wlan[0].radio radioMode:vector ETV
attr interpolationmode sample-hold
attr source radioModeChanged
attr title "Radio mode, vector"
vector 329 Scenario.node[24].wlan[0].radio receptionState:vector ETV
attr interpolationmode sample-hold
attr source receptionStateChanged
attr title "Radio reception state, vector"
vector 330 Scenario.node[24].wlan[0].radio transmissionState:vector ETV
attr interpolationmode sample-hold
attr source transmissionStateChanged
attr title "Radio transmission state, vector"
vector 331 Scenario.node[24].ipv6.neighbourDiscovery startDad:vector ETV
attr title "DAD started, vector"
vector 332 Scenario.node[24].wlan[0].mac rcvdPkFromHl:vector(packetBytes) ETV
attr interpolationmode none
attr source packetReceivedFromUpper
attr title "packets received from higher layer, vector(packetBytes)"
vector 333 Scenario.node[24].wlan[0].mac.queue packetPushed:vector(packetBytes) ETV
attr interpolationmode none
attr title "packet pushed, vector(packetBytes)"
vector 334 Scenario.node[24].wlan[0].mac.queue queueLength:vector ETV
attr autoWarmupFilter false
attr interpolationmode sample-hold
attr source "warmup(count(packetPushed) - count(packetPulled) - count(packetRemoved) - count(packetDropped))"
attr title "queue length, vector"
attr type int
vector 335 Scenario.node[24].wlan[0].mac.queue packetPulled:vector(packetBytes) ETV
attr interpolationmode none
attr title "packet pulled, vector(packetBytes)"
vector 336 Scenario.node[24].wlan[0].mac.queue queueingTime:vector ETV
attr interpolationmode none
attr source queueingTime(packetPulled)
attr title "queueing times, vector"
attr unit s
vector 337 Scenario.node[24].wlan[0].mac sentDownPk:vector(packetBytes) ETV
attr interpolationmode none
attr source packetSentToLower
attr title "packets sent to lower layer, vector(packetBytes)"
vector 338 Scenario.node[22].wlan[0].mac rcvdPkFromLl:vector(packetBytes) ETV
attr interpolationmode none
attr source packetReceivedFromLower
attr title "packets received from lower layer, vector(packetBytes)"
vector 339 Scenario.node[22].wlan[0].mac passedUpPk:vector(packetBytes) ETV
attr interpolationmode none
attr source packetSentToUpper
attr title "packets passed to higher layer, vector(packetBytes)"
vector 340 Scenario.node[25].wlan[0].radio radioMode:vector ETV
attr interpolationmode sample-hold
attr source radioModeChanged
attr title "Radio mode, vector"
vector 341 Scenario.node[25].wlan[0].radio receptionState:vector ETV
attr interpolationmode sample-hold
attr source receptionStateChanged
attr title "Radio reception state, vector"
vector 342 Scenario.node[25].wlan[0].radio transmissionState:vector ETV
attr interpolationmode sample-hold
attr source transmissionStateChanged
attr title "Radio transmission state, vector"
vector 343 Scenario.node[24].wlan[0].mac rcvdPkFromLl:vector(packetBytes) ETV
attr interpolationmode none
attr source packetReceivedFromLower
attr title "packets received from lower layer, vector(packetBytes)"
vector 344 Scenario.node[24].wlan[0].mac packetDropNotAddressedToUs:vector(packetBytes) ETV
attr interpolationmode none
attr source packetDropReasonIsNotAddressedToUs(packetDropped)
attr title "packet drop: not addressed to us, vector(packetBytes)"
vector 345 Scenario.node[0].wlan[0].mac packetDropIncorrectlyReceived:vector(packetBytes) ETV
attr interpolationmode none
attr source packetDropReasonIsIncorrectlyReceived(packetDropped)
attr title "packet drop: incorrectly received, vector(packetBytes)"
vector 346 Scenario.node[24].wlan[0].mac passedUpPk:vector(packetBytes) ETV
attr interpolationmode none
attr source packetSentToUpper
attr title "packets passed to higher layer, vector(packetBytes)"
vector 347 Scenario.node[0].wlan[0].mac packetDropNotAddressedToUs:vector(packetBytes) ETV
attr interpolationmode none
attr source packetDropReasonIsNotAddressedToUs(packetDropped)
attr title "packet drop: not addressed to us, vector(packetBytes)"
vector 348 Scenario.node[9].wlan[0].mac packetDropNotAddressedToUs:vector(packetBytes) ETV
attr interpolationmode none
attr source packetDropReasonIsNotAddressedToUs(packetDropped)
attr title "packet drop: not addressed to us, vector(packetBytes)"
vector 349 Scenario.node[25].wlan[0].mac rcvdPkFromLl:vector(packetBytes) ETV
attr interpolationmode none
attr source packetReceivedFromLower
attr title "packets received from lower layer, vector(packetBytes)"
vector 350 Scenario.node[25].wlan[0].mac passedUpPk:vector(packetBytes) ETV
attr interpolationmode none
attr source packetSentToUpper
attr title "packets passed to higher layer, vector(packetBytes)"
vector 351 Scenario.node[25].ipv6.neighbourDiscovery startDad:vector ETV
attr title "DAD started, vector"
vector 352 Scenario.node[25].wlan[0].mac rcvdPkFromHl:vector(packetBytes) ETV
attr interpolationmode none
attr source packetReceivedFromUpper
attr title "packets received from higher layer, vector(packetBytes)"
vector 353 Scenario.node[25].wlan[0].mac.queue packetPushed:vector(packetBytes) ETV
attr interpolationmode none
attr title "packet pushed, vector(packetBytes)"
vector 354 Scenario.node[25].wlan[0].mac.queue queueLength:vector ETV
attr autoWarmupFilter false
attr interpolationmode sample-hold
attr source "warmup(count(packetPushed) - count(packetPulled) - count(packetRemoved) - count(packetDropped))"
attr title "queue length, vector"
attr type int
vector 355 Scenario.node[25].wlan[0].mac.queue packetPulled:vector(packetBytes) ETV
attr interpolationmode none
attr title "packet pulled, vector(packetBytes)"
vector 356 Scenario.node[25].wlan[0].mac.queue queueingTime:vector ETV
attr interpolationmode none
attr source queueingTime(packetPulled)
attr title "queueing times, vector"
attr unit s
vector 357 Scenario.node[25].wlan[0].mac sentDownPk:vector(packetBytes) ETV
attr interpolationmode none
attr source packetSentToLower
attr title "packets sent to lower layer, vector(packetBytes)"
vector 358 Scenario.node[26].wlan[0].radio radioMode:vector ETV
attr interpolationmode sample-hold
attr source radioModeChanged
attr title "Radio mode, vector"
vector 359 Scenario.node[26].wlan[0].radio receptionState:vector ETV
attr interpolationmode sample-hold
attr source receptionStateChanged
attr title "Radio reception state, vector"
vector 360 Scenario.node[26].wlan[0].radio transmissionState:vector ETV
attr interpolationmode sample-hold
attr source transmissionStateChanged
attr title "Radio transmission state, vector"
vector 361 Scenario.node[26].wlan[0].mac rcvdPkFromLl:vector(packetBytes) ETV
attr interpolationmode none
attr source packetReceivedFromLower
attr title "packets received from lower layer, vector(packetBytes)"
vector 362 Scenario.node[26].wlan[0].mac passedUpPk:vector(packetBytes) ETV
attr interpolationmode none
attr source packetSentToUpper
attr title "packets passed to higher layer, vector(packetBytes)"
vector 363 Scenario.node[26].ipv6.neighbourDiscovery startDad:vector ETV
attr title "DAD started, vector"
vector 364 Scenario.node[26].wlan[0].mac rcvdPkFromHl:vector(packetBytes) ETV
attr interpolationmode none
attr source packetReceivedFromUpper
attr title "packets received from higher layer, vector(packetBytes)"
vector 365 Scenario.node[26].wlan[0].mac.queue packetPushed:vector(packetBytes) ETV
attr interpolationmode none
attr title "packet pushed, vector(packetBytes)"
vector 366 Scenario.node[26].wlan[0].mac.queue queueLength:vector ETV
attr autoWarmupFilter false
attr interpolationmode sample-hold
attr source "warmup(count(packetPushed) - count(packetPulled) - count(packetRemoved) - count(packetDropped))"
attr title "queue length, vector"
attr type int
vector 367 Scenario.node[26].wlan[0].mac.queue packetPulled:vector(packetBytes) ETV
attr interpolationmode none
attr title "packet pulled, vector(packetBytes)"
vector 368 Scenario.node[26].wlan[0].mac.queue queueingTime:vector ETV
attr interpolationmode none
attr source queueingTime(packetPulled)
attr title "queueing times, vector"
attr unit s
vector 369 Scenario.node[26].wlan[0].mac sentDownPk:vector(packetBytes) ETV
attr interpolationmode none
attr source packetSentToLower
attr title "packets sent to lower layer, vector(packetBytes)"
0	0	0	0
0	0	0	0
0	0	0	4
1	0	0	0
1	0	0	0
1	0	0	4
2	0	0	1
2	8	0.615314705127	3
2	13	0.615710705127	1
2	22	0.726930214893	3
2	27	0.727326214893	1
2	70	1.423655105251	3
2	77	1.424099105251	1
2	128	1.937587409756	3
2	136	1.938063409756	1
2	149	1.983885376212	3
2	156	1.984249376212	1
2	192	2.00042841112	3
2	203	2.00085641112	1
2	230	2.00147682224	3
2	245	2.00190482224	1
2	249	2.001905068834	3
2	265	2.002397068834	1
2	268	2.002397109622	3
2	283	2.003017109622	1
2	286	2.003017356216	3
2	300	2.003637356216	1
2	302	2.003637397004	3
2	312	2.004257397004	1
2	398	2.759053994073	3
2	407	2.759417994073	1
2	461	3.000620443858	3
2	476	3.001240443858	1
2	479	3.001240660182	3
2	493	3.001860660182	1
2	495	3.001860703438	3
2	505	3.002480703438	1
2	522	3.235823831716	3
2	531	3.236267831716	1
2	544	3.274983593537	3
2	553	3.275459593537	1
2	682	4.000620496328	3
2	700	4.001240496328	1
2	702	4.001240677091	3
2	718	4.001860677091	1
2	720	4.001860737256	3
2	732	4.002480737256	1
2	822	4.748591673533	3
2	832	4.749067673533	1
2	917	5.000620554758	3
2	937	5.001240554758	1
2	939	5.001240689667	3
2	957	5.001860689667	1
2	959	5.001860762408	3
2	973	5.002480762408	1
2	1034	5.214442174611	3
2	1045	5.214886174611	1
2	1117	5.891944991558	3
2	1128	5.892420991558	1
2	1143	5.983885470864	3
2	1153	5.984249470864	1
2	1195	6.000620625932	3
2	1215	6.001240625932	1
2	1217	6.001240715385	3
2	1235	6.001860715385	1
2	1237	6.001860813844	3
2	1251	6.002480813844	1
2	1342	6.400774519154	3
2	1353	6.401218519154	1
2	1450	6.759053994073	3
2	1461	6.759417994073	1
2	1527	7.000620709312	3
2	1549	7.001240709312	1
2	1551	7.001240763295	3
2	1571	7.001860763295	1
2	1573	7.001860909664	3
2	1589	7.002480909664	1
2	1605	7.003017356216	3
2	1621	7.003477356216	1
2	1624	7.003477502585	3
2	1647	7.003905502585	2
2	1648	7.003905502585	3
2	1667	7.004301502585	1
2	1716	7.108495408491	3
2	1728	7.108971408491	1
2	1818	7.419564317175	3
2	1830	7.420008317175	1
2	2040	8.000620805568	3
2	2065	8.001240805568	1
2	2067	8.001240837725	3
2	2091	8.001860837725	1
2	2093	8.001861058524	3
2	2113	8.002481058524	1
2	2395	8.779072219235	3
2	2410	8.779516219235	1
2	2502	9.000620906548	3
2	2528	9.001240906548	1
2	2530	9.001240927328	3
2	2555	9.001860927328	1
2	2558	9.00186123773	3
2	2580	9.00248123773	1
2	2639	9.052243582391	3
2	2654	9.052719582391	1
2	2987	9.983885655015	3
2	3002	9.984249655015	1
2	3067	10.000621007874	3
2	3097	10.001241007874	1
2	3099	10.001241022505	3
2	3128	10.001861022505	1
2	3132	10.001861428084	3
2	3157	10.002481428084	1
2	3535	10.705033977369	3
2	3552	10.705509977369	1
2	3573	10.759053994073	3
2	3590	10.759417994073	1
2	3609	10.767446051081	3
2	3626	10.767890051081	1
2	3896	11.00062110937	3
2	3927	11.00124110937	1
2	3929	11.001241120326	3
2	3960	11.001861120326	1
2	3965	11.001861623726	3
2	3991	11.002481623726	1
2	4655	12.000621211364	3
2	4686	12.001241211364	1
2	4689	12.001241219934	3
2	4722	12.001861219934	1
2	4728	12.001861822942	3
2	4755	12.002481822942	1
2	4885	12.367560921792	3
2	4904	12.368036921792	1
2	5108	12.588439281992	3
2	5124	12.588883281992	1
2	5600	13.000621313512	3
2	5631	13.001241313512	1
2	5633	13.001241320443	3
2	5664	13.001861320443	1
2	5677	13.00186202396	3
2	5704	13.00248202396	1
2	5731	13.028182681188	3
2	5748	13.028578681188	1
2	6470	14.002702270364	3
2	6489	14.003146270364	1
2	7404	14.921158128425	3
2	7427	14.921634128425	1
2	7529	15.00042901841	3
2	7567	15.00085701841	1
2	8017	15.360235847607	3
2	8040	15.360599847607	1
2	8233	15.555523754526	3
2	8254	15.555967754526	1
2	8500	15.793571724644	3
2	8521	15.793967724644	1
2	8633	16.000620980266	3
2	8720	16.001432980266	1
2	8729	16.001433470399	3
2	8774	16.001861470399	1
2	9643	16.671725664483	3
2	9666	16.672169664483	1
2	9889	16.817196479503	3
2	9912	16.817672479503	1
2	10220	17.00062092896	3
2	10259	17.00143292896	1
2	10476	17.199479714544	3
2	10500	17.199955714544	1
2	11179	17.69091886511	3
2	11204	17.69136286511	1
2	11832	18.00042884234	3
2	11874	18.00085684234	1
2	11921	18.000857494647	3
2	12037	18.001285494647	1
2	12146	18.059883538497	3
2	12171	18.060247538497	1
2	12972	18.497762026478	3
2	12997	18.498238026478	1
2	13171	18.533270948019	3
2	13196	18.533746948019	1
2	13805	19.000620798872	3
2	13908	19.001048798872	1
2	14009	19.037146570847	3
2	14039	19.037542570847	1
2	14069	19.122337299594	3
2	14095	19.122781299594	1
2	14407	19.360235731334	3
2	14436	19.360599731334	1
2	14931	19.6360634237	3
2	14964	19.6364594237	1
2	15371	19.967011163433	3
2	15398	19.967487163433	1
2	15678	20.000620771537	3
2	15790	20.001048771537	1
2	15858	20.001285969975	3
2	15921	20.001713969975	1
2	15956	20.001714487353	3
2	16057	20.002142487353	1
2	16329	20.102143125071	3
2	16470	20.102571125071	1
2	16975	20.37441101245	3
2	17006	20.37488701245	1
3	0	0	1
3	34	0.91476737191	2
3	37	0.91516337191	1
3	105	1.847251737257	2
3	110	1.847695737257	1
3	174	2	2
3	180	2.000428	1
3	210	2.00085641112	2
3	219	2.00147641112	1
3	331	2.058609644604	2
3	337	2.058973644604	1
3	446	3	2
3	452	3.00062	1
3	592	3.683330506086	2
3	599	3.683774506086	1
3	666	4	2
3	673	4.00062	1
3	865	4.801604929845	2
3	872	4.802048929845	1
3	900	5	2
3	908	5.00062	1
3	1178	6	2
3	1186	6.00062	1
3	1268	6.058609644604	2
3	1276	6.058973644604	1
3	1422	6.74627384846	2
3	1430	6.74671784846	1
3	1509	7	2
3	1518	7.00062	1
3	1674	7.004301502585	2
3	1689	7.004793502585	1
3	1972	7.895948712247	2
3	1982	7.896392712247	1
3	2019	8	2
3	2030	8.00062	1
3	2479	9	2
3	2491	9.00062	1
3	2813	9.562715423525	2
3	2826	9.563159423525	1
3	3042	10	2
3	3056	10.00062	1
3	3180	10.058609644604	2
3	3194	10.058973644604	1
3	3869	11	2
3	3884	11.00062	1
3	4015	11.029026196337	2
3	4030	11.029470196337	1
3	4626	12	2
3	4642	12.00062	1
3	5372	12.907219664891	2
3	5388	12.907663664891	1
3	5567	13	2
3	5584	13.00062	1
3	6426	14	2
3	6445	14.00062	1
3	6946	14.473821113351	2
3	6965	14.474265113351	1
3	7491	15	2
3	7511	15.000428	1
3	7574	15.00085701841	2
3	7651	15.00147701841	1
3	8593	16	2
3	8615	16.00062	1
3	8903	16.043439517728	2
3	8925	16.043883517728	1
3	10180	17	2
3	10204	17.00062	1
3	11040	17.631904601118	2
3	11065	17.632348601118	1
3	11789	18	2
3	11814	18.000428	1
3	11881	18.00085684234	2
3	12111	18.00147684234	1
3	13763	19	2
3	13789	19.00062	1
3	14337	19.28400787548	2
3	14363	19.28445187548	1
3	15633	20	2
3	15661	20.00062	1
4	0	0	1
4	7	0.61531466721	3
4	10	0.61571066721	1
4	36	0.914767680373	3
4	42	0.915163680373	1
4	107	1.84725204572	3
4	115	1.84769604572	1
4	127	1.9375873588	3
4	132	1.9380633588	1
4	148	1.983885325256	3
4	153	1.984249325256	1
4	176	2.000000308463	3
4	188	2.000428308463	1
4	191	2.000428349251	3
4	200	2.000856349251	1
4	212	2.000856719583	3
4	227	2.001476719583	1
4	229	2.001476760371	3
4	238	2.001904760371	1
4	264	2.002397047753	3
4	276	2.003017047753	1
4	299	2.003637335135	3
[...]
251	10208	17.000620437065	143
251	10577	17.225147551753	87
251	11071	17.632349030994	99
251	11209	17.691363011436	99
251	11595	17.89232880041	79
251	11819	18.00042842117	95
251	12115	18.00147726351	143
251	12384	18.106487407015	107
251	12942	18.429245297748	107
251	13205	18.533747154762	107
251	13795	19.000620399436	143
251	13956	19.00128561076	95
251	14100	19.122781416555	99
251	14303	19.236972040843	79
251	14373	19.284452274916	99
251	14444	19.360599934388	79
251	15034	19.696593298919	107
251	15555	19.998410849332	107
251	15667	20.000620372101	143
251	15838	20.001285597874	95
251	16071	20.002142681258	95
251	16309	20.10214275297	95
251	16468	20.102571109485	95
251	16703	20.143486574521	107
251	17015	20.374887206355	107
252	8263	15.555967918086	76
252	8931	16.043883964517	76
252	9612	16.631619818112	84
252	9675	16.672169823204	76
252	10577	17.225147551753	64
252	11071	17.632349030994	76
252	11209	17.691363011436	76
252	11595	17.89232880041	56
252	11819	18.00042842117	72
252	12384	18.106487407015	84
252	12942	18.429245297748	84
252	13205	18.533747154762	84
252	13795	19.000620399436	120
252	14100	19.122781416555	76
252	14303	19.236972040843	56
252	14373	19.284452274916	76
252	14444	19.360599934388	56
252	15034	19.696593298919	84
252	15555	19.998410849332	84
252	15667	20.000620372101	120
252	15838	20.001285597874	72
252	16309	20.10214275297	72
252	16703	20.143486574521	84
252	17015	20.374887206355	84
253	8496	15.793571277172	1
254	8498	15.793571277172	64
254	10474	17.199479277479	84
254	11823	18.00042842117	72
254	12144	18.059883117327	56
254	12970	18.497761605308	84
254	13799	19.000620399436	72
254	15369	19.967010776979	84
254	15672	20.000620399436	72
254	15842	20.001285597874	72
254	16313	20.10214275297	72
255	8498	15.793571277172	64
255	10474	17.199479277479	84
255	11823	18.00042842117	72
255	12144	18.059883117327	56
255	12970	18.497761605308	84
255	13799	19.000620399436	72
255	15369	19.967010776979	84
255	15672	20.000620399436	72
255	15842	20.001285597874	72
255	16313	20.10214275297	72
256	8498	15.793571277172	1
256	8498	15.793571277172	0
256	10474	17.199479277479	1
256	10474	17.199479277479	0
256	11823	18.00042842117	1
256	11823	18.00042842117	0
256	12144	18.059883117327	1
256	12144	18.059883117327	0
256	12970	18.497761605308	1
256	12970	18.497761605308	0
256	13799	19.000620399436	1
256	13799	19.000620399436	0
256	15369	19.967010776979	1
256	15369	19.967010776979	0
256	15672	20.000620399436	1
256	15672	20.000620399436	0
256	15842	20.001285597874	1
256	15842	20.001285597874	0
256	16313	20.10214275297	1
256	16313	20.10214275297	0
257	8498	15.793571277172	64
257	10474	17.199479277479	84
257	11823	18.00042842117	72
257	12144	18.059883117327	56
257	12970	18.497761605308	84
257	13799	19.000620399436	72
257	15369	19.967010776979	84
257	15672	20.000620399436	72
257	15842	20.001285597874	72
257	16313	20.10214275297	72
258	8498	15.793571277172	0
258	10474	17.199479277479	0
258	11823	18.00042842117	0
258	12144	18.059883117327	0
258	12970	18.497761605308	0
258	13799	19.000620399436	0
258	15369	19.967010776979	0
258	15672	20.000620399436	0
258	15842	20.001285597874	0
258	16313	20.10214275297	0
259	8498	15.793571277172	87
259	10474	17.199479277479	107
259	11823	18.00042842117	95
259	12144	18.059883117327	79
259	12970	18.497761605308	107
259	13799	19.000620399436	95
259	15369	19.967010776979	107
259	15672	20.000620399436	95
259	15842	20.001285597874	95
259	16313	20.10214275297	95
260	8590	16	0
260	8590	16	0
260	8590	16	4
261	8590	16	1
261	10414	17.159454649627	3
261	10444	17.159930649627	1
261	12624	18.262318036076	3
261	12658	18.262794036076	1
261	14475	19.362544944446	3
261	14510	19.363020944446	1
262	8590	16	1
262	9186	16.264520607865	2
262	9208	16.264916607865	1
262	11626	17.938990762434	2
262	11651	17.939354762434	1
262	11683	17.96541621862	2
262	11708	17.96589221862	1
262	14671	19.401281137951	2
262	14697	19.401757137951	1
262	17248	20.470448128181	2
262	17276	20.470924128181	1
263	8619	16.000620446789	143
263	10208	17.000620437065	143
263	16468	20.102571109485	95
264	8719	16.001432962073	191
264	10265	17.001432962701	191
264	12048	18.001285595877	95
265	9183	16.264520607865	1
266	9185	16.264520607865	64
266	11625	17.938990762434	56
266	11682	17.96541621862	84
266	14670	19.401281137951	84
266	17247	20.470448128181	84
267	9185	16.264520607865	64
267	11625	17.938990762434	56
267	11682	17.96541621862	84
267	14670	19.401281137951	84
267	17247	20.470448128181	84
268	9185	16.264520607865	1
268	9185	16.264520607865	0
268	11625	17.938990762434	1
268	11625	17.938990762434	0
268	11682	17.96541621862	1
268	11682	17.96541621862	0
268	14670	19.401281137951	1
268	14670	19.401281137951	0
268	17247	20.470448128181	1
268	17247	20.470448128181	0
269	9185	16.264520607865	64
269	11625	17.938990762434	56
269	11682	17.96541621862	84
269	14670	19.401281137951	84
269	17247	20.470448128181	84
270	9185	16.264520607865	0
270	11625	17.938990762434	0
270	11682	17.96541621862	0
270	14670	19.401281137951	0
270	17247	20.470448128181	0
271	9185	16.264520607865	87
271	11625	17.938990762434	79
271	11682	17.96541621862	107
271	14670	19.401281137951	107
271	17247	20.470448128181	107
272	9579	16.5	0
272	9579	16.5	0
272	9579	16.5	4
273	9579	16.5	1
273	9822	16.790779153034	3
273	9857	16.791255153034	1
273	10015	16.878140982846	3
273	10038	16.878616982846	1
273	10609	17.235840084697	3
273	10648	17.236316084697	1
273	10810	17.403789473199	3
273	10849	17.404153473199	1
273	11109	17.633507954458	3
273	11152	17.633983954458	1
273	12218	18.092353989728	3
273	12258	18.092829989728	1
273	12489	18.166131965834	3
273	12514	18.166607965834	1
273	12761	18.352424858628	3
273	12804	18.352900858628	1
273	13095	18.529446736979	3
273	13141	18.529922736979	1
273	13375	18.805804965968	3
273	13415	18.806280965968	1
273	13576	18.954505208533	3
273	13619	18.954981208533	1
273	14789	19.519336848772	3
273	14837	19.519700848772	1
273	15070	19.70473649124	3
273	15118	19.70521249124	1
273	15213	19.870020540895	3
273	15240	19.870496540895	1
273	16172	20.076396190767	3
273	16218	20.076872190767	1
273	16585	20.116998136395	3
273	16634	20.117474136395	1
273	16813	20.218997214296	3
273	16841	20.219393214296	1
273	16894	20.270725007941	3
273	16943	20.271089007941	1
273	17524	20.528293646574	3
273	17577	20.528769646574	1
273	17618	20.641539367642	3
273	17659	20.642015367642	1
273	17700	20.710452659121	3
273	17753	20.710928659121	1
273	17860	20.738109890812	3
273	17905	20.738505890812	1
274	9579	16.5	1
274	9701	16.685642568301	2
274	9724	16.686038568301	1
274	12347	18.106393216876	2
274	12441	18.106869216876	1
274	13234	18.692797274003	2
274	13259	18.693161274003	1
274	15291	19.912587208673	2
274	15318	19.913063208673	1
275	9698	16.685642568301	1
276	9700	16.685642568301	64
276	12346	18.106393216876	84
276	13233	18.692797274003	56
276	15290	19.912587208673	84
277	9700	16.685642568301	64
277	12346	18.106393216876	84
277	13233	18.692797274003	56
277	15290	19.912587208673	84
278	9700	16.685642568301	1
278	9700	16.685642568301	0
278	12346	18.106393216876	1
278	12346	18.106393216876	0
278	13233	18.692797274003	1
278	13233	18.692797274003	0
278	15290	19.912587208673	1
278	15290	19.912587208673	0
279	9700	16.685642568301	64
279	12346	18.106393216876	84
279	13233	18.692797274003	56
279	15290	19.912587208673	84
280	9700	16.685642568301	0
280	12346	18.106393216876	0
280	13233	18.692797274003	0
280	15290	19.912587208673	0
281	9700	16.685642568301	87
281	12346	18.106393216876	107
281	13233	18.692797274003	79
281	15290	19.912587208673	107
282	9858	16.791255153034	107
282	10039	16.878616982846	107
282	10649	17.236316084697	107
282	10850	17.404153473199	79
282	11153	17.633983954458	107
282	12259	18.092829989728	107
282	12515	18.166607965834	107
282	12805	18.352900858628	107
282	13142	18.529922736979	107
282	13416	18.806280965968	107
282	13620	18.954981208533	107
282	14838	19.519700848772	79
282	15119	19.70521249124	107
282	15241	19.870496540895	107
282	16219	20.076872190767	107
282	16635	20.117474136395	107
282	16842	20.219393214296	87
282	16944	20.271089007941	79
282	17578	20.528769646574	107
282	17660	20.642015367642	107
282	17754	20.710928659121	107
282	17906	20.738505890812	87
283	9858	16.791255153034	84
283	10039	16.878616982846	84
283	10649	17.236316084697	84
283	10850	17.404153473199	56
283	11153	17.633983954458	84
283	12259	18.092829989728	84
283	12515	18.166607965834	84
283	12805	18.352900858628	84
283	13142	18.529922736979	84
283	13416	18.806280965968	84
283	13620	18.954981208533	84
283	14838	19.519700848772	56
283	15119	19.70521249124	84
283	15241	19.870496540895	84
283	16219	20.076872190767	84
283	16635	20.117474136395	84
283	16842	20.219393214296	64
283	16944	20.271089007941	56
283	17578	20.528769646574	84
283	17660	20.642015367642	84
283	17754	20.710928659121	84
283	17906	20.738505890812	64
284	10177	17	0
284	10177	17	0
284	10177	17	4
285	10177	17	1
285	10351	17.112716763965	3
285	10375	17.113192763965	1
285	10479	17.199479878416	3
285	10512	17.199955878416	1
285	11182	17.690919193409	3
285	11216	17.691363193409	1
285	11361	17.712799322485	3
285	11389	17.713163322485	1
285	11427	17.862580731298	3
285	11455	17.863056731298	1
285	11562	17.891964726086	3
285	11590	17.892328726086	1
285	11839	18.000429020326	3
285	11893	18.000857020326	1
285	11918	18.000857463106	3
285	12031	18.001285463106	1
285	12149	18.059883716483	3
285	12181	18.060247716483	1
285	12293	18.106011289859	3
285	12377	18.106487289859	1
285	12558	18.248190807873	3
285	12583	18.248666807873	1
285	12687	18.276398945949	3
285	12712	18.276874945949	1
285	12834	18.404724856467	3
285	12859	18.405088856467	1
285	12975	18.497762204464	3
285	13009	18.498238204464	1
285	13811	19.00062098987	3
285	13913	19.00104898987	2
285	13949	19.001285429939	1
285	14072	19.122337618063	3
285	14107	19.122781618063	1
285	14196	19.230142669886	3
285	14228	19.230618669886	1
285	14602	19.375967994137	3
285	14628	19.376443994137	1
285	14994	19.696116933991	3
285	15021	19.696592933991	1
285	15374	19.967011361397	3
285	15410	19.967487361397	1
285	15512	19.997934600964	3
285	15542	19.998410600964	1
285	15687	20.000620976984	3
285	15798	20.001048976984	2
285	15832	20.001285404716	1
285	15869	20.001286175422	3
285	15935	20.001714175422	1
285	15958	20.001714531937	3
285	16060	20.002142531937	1
285	16296	20.102142538716	3
285	16446	20.102570538716	2
285	16485	20.102571330518	1
285	17117	20.409190353976	3
285	17145	20.409666353976	1
286	10177	17	1
286	10539	17.224750950816	2
286	10563	17.225146950816	1
286	11900	18.000857020326	2
286	12022	18.001285020326	1
286	12899	18.428768698592	2
286	12924	18.429244698592	1
286	13856	19.000857020326	2
286	13941	19.001285020326	1
286	14263	19.236607450409	2
286	14289	19.236971450409	1
286	15734	20.000857020326	2
286	15825	20.001285020326	1
286	15941	20.001714175422	2
286	16123	20.002334175422	1
286	16253	20.101714175422	2
286	16281	20.102142175422	1
286	16661	20.143009996973	2
286	16689	20.143485996973	1
287	10376	17.113192763965	107
287	10513	17.199955878416	107
287	11217	17.691363193409	99
287	11390	17.713163322485	79
287	11456	17.863056731298	107
287	11591	17.892328726086	79
287	11894	18.000857020326	95
287	12032	18.001285463106	95
287	12182	18.060247716483	79
287	12378	18.106487289859	107
287	12584	18.248666807873	107
287	12713	18.276874945949	107
287	12860	18.405088856467	79
287	13010	18.498238204464	107
287	13914	19.00104898987	95
287	14108	19.122781618063	99
287	14229	19.230618669886	107
287	14629	19.376443994137	107
287	15022	19.696592933991	107
287	15411	19.967487361397	107
287	15543	19.998410600964	107
287	15799	20.001048976984	95
287	15936	20.001714175422	95
287	16061	20.002142531937	95
287	16447	20.102570538716	95
287	17146	20.409666353976	107
288	10376	17.113192763965	84
288	10513	17.199955878416	84
288	11217	17.691363193409	76
288	11390	17.713163322485	56
288	11456	17.863056731298	84
288	11591	17.892328726086	56
288	11894	18.000857020326	72
288	12032	18.001285463106	72
288	12182	18.060247716483	56
288	12378	18.106487289859	84
288	12584	18.248666807873	84
288	12713	18.276874945949	84
288	12860	18.405088856467	56
288	13010	18.498238204464	84
288	14108	19.122781618063	76
288	14229	19.230618669886	84
288	14629	19.376443994137	84
288	15022	19.696592933991	84
288	15411	19.967487361397	84
288	15543	19.998410600964	84
288	15936	20.001714175422	72
288	16061	20.002142531937	72
288	17146	20.409666353976	84
289	10445	17.159930649627	107
289	12659	18.262794036076	107
289	14511	19.363020944446	107
290	10445	17.159930649627	84
290	12659	18.262794036076	84
290	14511	19.363020944446	84
291	10536	17.224750950816	1
292	10538	17.224750950816	64
292	11899	18.000857020326	72
292	12898	18.428768698592	84
292	13855	19.000857020326	72
292	14262	19.236607450409	56
292	15733	20.000857020326	72
292	15940	20.001714175422	120
292	16065	20.002142531937	72
292	16660	20.143009996973	84
293	10538	17.224750950816	64
293	11899	18.000857020326	72
293	12898	18.428768698592	84
293	13855	19.000857020326	72
293	14262	19.236607450409	56
293	15733	20.000857020326	72
293	15940	20.001714175422	120
293	16065	20.002142531937	72
293	16660	20.143009996973	84
294	10538	17.224750950816	1
294	10538	17.224750950816	0
294	11899	18.000857020326	1
294	11899	18.000857020326	0
294	12898	18.428768698592	1
294	12898	18.428768698592	0
294	13855	19.000857020326	1
294	13855	19.000857020326	0
294	14262	19.236607450409	1
294	14262	19.236607450409	0
294	15733	20.000857020326	1
294	15733	20.000857020326	0
294	15940	20.001714175422	1
294	15940	20.001714175422	0
294	16065	20.002142531937	1
294	16252	20.101714175422	0
294	16660	20.143009996973	1
294	16660	20.143009996973	0
295	10538	17.224750950816	64
295	11899	18.000857020326	72
295	12898	18.428768698592	84
295	13855	19.000857020326	72
295	14262	19.236607450409	56
295	15733	20.000857020326	72
295	15940	20.001714175422	120
295	16252	20.101714175422	72
295	16660	20.143009996973	84
296	10538	17.224750950816	0
296	11899	18.000857020326	0
296	12898	18.428768698592	0
296	13855	19.000857020326	0
296	14262	19.236607450409	0
296	15733	20.000857020326	0
296	15940	20.001714175422	0
296	16252	20.101714175422	0.099571643485
296	16660	20.143009996973	0
297	10538	17.224750950816	87
297	11899	18.000857020326	95
297	12898	18.428768698592	107
297	13855	19.000857020326	95
297	14262	19.236607450409	79
297	15733	20.000857020326	95
297	15940	20.001714175422	143
297	16252	20.101714175422	95
297	16660	20.143009996973	107
298	10922	17.5	0
298	10922	17.5	0
298	10922	17.5	4
299	10922	17.5	1
299	14930	19.636063245816	3
299	14961	19.636459245816	1
300	10922	17.5	1
300	10926	17.510087528126	2
300	10951	17.510483528126	1
300	14137	19.153200815432	2
300	14163	19.153676815432	1
300	17186	20.46162425084	2
300	17214	20.46198825084	1
301	10923	17.510087528126	1
302	10925	17.510087528126	64
302	14136	19.153200815432	84
302	17185	20.46162425084	56
303	10925	17.510087528126	64
303	14136	19.153200815432	84
303	17185	20.46162425084	56
304	10925	17.510087528126	1
304	10925	17.510087528126	0
304	14136	19.153200815432	1
304	14136	19.153200815432	0
304	17185	20.46162425084	1
304	17185	20.46162425084	0
305	10925	17.510087528126	64
305	14136	19.153200815432	84
305	17185	20.46162425084	56
306	10925	17.510087528126	0
306	14136	19.153200815432	0
306	17185	20.46162425084	0
307	10925	17.510087528126	87
307	14136	19.153200815432	107
307	17185	20.46162425084	79
308	12025	18.001285265148	95
308	13943	19.001285228515	95
308	15827	20.001285201973	95
308	16125	20.002334357069	143
308	16453	20.102570746903	95
309	12027	18.001285337426	95
309	13945	19.001285319997	95
310	12113	18.001477150803	143
310	13912	19.00104882486	95
310	15794	20.001048798622	95
310	16073	20.002142754697	95
310	16462	20.102570958944	95
311	12115	18.00147726351	143
311	13956	19.00128561076	95
311	16071	20.002142681258	95
312	12382	18.106487404911	107
313	13760	19	0
313	13760	19	0
313	13760	19	4
314	13760	19	1
314	13767	19.000000576127	3
314	13801	19.000620576127	1
314	14341	19.284008451607	3
314	14376	19.284452451607	1
314	14406	19.360235521813	3
314	14432	19.360599521813	1
314	14864	19.605826696699	3
314	14891	19.606302696699	1
314	14929	19.636063211859	3
314	14958	19.636459211859	1
314	15637	20.000000575666	3
314	15674	20.000620575666	1
314	15954	20.001714367461	3
314	16054	20.002142367461	1
314	16974	20.374410892558	3
314	17002	20.374886892558	1
314	17052	20.407887100215	3
314	17080	20.408251100215	1
315	13760	19	1
315	14006	19.03714599472	2
315	14032	19.03754199472	1
316	13802	19.000620576127	143
316	14377	19.284452451607	99
316	14433	19.360599521813	79
316	14892	19.606302696699	107
316	14959	19.636459211859	87
316	15675	20.000620575666	143
316	16055	20.002142367461	95
316	17003	20.374886892558	107
316	17081	20.408251100215	79
317	13802	19.000620576127	143
317	15675	20.000620575666	143
318	13914	19.00104898987	95
318	15799	20.001048976984	95
318	16447	20.102570538716	95
319	13919	19.00104903356	95
320	14003	19.03714599472	1
321	14005	19.03714599472	64
322	14005	19.03714599472	64
323	14005	19.03714599472	1
323	14005	19.03714599472	0
324	14005	19.03714599472	64
325	14005	19.03714599472	0
326	14005	19.03714599472	87
327	14377	19.284452451607	76
327	14433	19.360599521813	56
327	14892	19.606302696699	84
327	14959	19.636459211859	64
327	16055	20.002142367461	72
327	17003	20.374886892558	84
327	17081	20.408251100215	56
328	14777	19.5	0
328	14777	19.5	0
328	14777	19.5	4
329	14777	19.5	1
329	15638	20.000000617442	3
329	15676	20.000620617442	1
329	15960	20.001714552829	3
329	16067	20.002142552829	1
329	16976	20.374411077926	3
329	17010	20.374887077926	1
329	17187	20.461624697572	3
329	17215	20.461988697572	1
330	14777	19.5	1
330	14927	19.636062804074	2
330	14954	19.636458804074	1
331	14924	19.636062804074	1
332	14926	19.636062804074	64
333	14926	19.636062804074	64
334	14926	19.636062804074	1
334	14926	19.636062804074	0
335	14926	19.636062804074	64
336	14926	19.636062804074	0
337	14926	19.636062804074	87
338	14962	19.636459245816	87
339	14962	19.636459245816	64
340	15630	20	0
340	15630	20	0
340	15630	20	4
341	15630	20	1
341	16174	20.07639623639	3
341	16226	20.07687223639	1
341	16895	20.270725053685	3
341	16947	20.271089053685	1
341	17525	20.528293687272	3
341	17581	20.528769687272	1
341	17617	20.641539361031	3
341	17655	20.642015361031	1
341	17701	20.710452715893	3
341	17757	20.710928715893	1
341	17862	20.738109947693	3
341	17911	20.738505947693	1
342	15630	20	1
342	16812	20.218997168518	2
342	16840	20.219393168518	1
343	15677	20.000620617442	143
343	16068	20.002142552829	95
343	17011	20.374887077926	107
343	17216	20.461988697572	79
344	15677	20.000620617442	143
345	15801	20.001049053118	95
345	16450	20.102570648169	95
346	16068	20.002142552829	72
346	17011	20.374887077926	84
346	17216	20.461988697572	56
347	16127	20.002334455803	143
348	16129	20.002334579422	143
349	16227	20.07687223639	107
349	16948	20.271089053685	79
349	17582	20.528769687272	107
349	17656	20.642015361031	107
349	17758	20.710928715893	107
349	17912	20.738505947693	87
350	16227	20.07687223639	84
350	16948	20.271089053685	56
350	17582	20.528769687272	84
350	17656	20.642015361031	84
350	17758	20.710928715893	84
350	17912	20.738505947693	64
351	16809	20.218997168518	1
352	16811	20.218997168518	64
353	16811	20.218997168518	64
354	16811	20.218997168518	1
354	16811	20.218997168518	0
355	16811	20.218997168518	64
356	16811	20.218997168518	0
357	16811	20.218997168518	87
358	17436	20.5	0
358	17436	20.5	0
358	17436	20.5	4
359	17436	20.5	1
359	17441	20.502517351312	3
359	17470	20.502993351312	1
359	17520	20.528293544097	3
359	17561	20.528769544097	1
359	17693	20.710452187638	3
359	17725	20.710928187638	1
360	17436	20.5	1
360	17851	20.73810931074	2
360	17880	20.73850531074	1
361	17471	20.502993351312	107
361	17562	20.528769544097	107
361	17726	20.710928187638	107
362	17471	20.502993351312	84
362	17562	20.528769544097	84
362	17726	20.710928187638	84
363	17848	20.73810931074	1
364	17850	20.73810931074	64
365	17850	20.73810931074	64
366	17850	20.73810931074	1
366	17850	20.73810931074	0
367	17850	20.73810931074	64
368	17850	20.73810931074	0
369	17850	20.73810931074	87

