version 3
run RoutingProtocol-0-20210309-03:01:05-15275
attr configname RoutingProtocol
attr datetime 20210309-03:01:05
attr datetimef 20210309-030105
attr experiment RoutingProtocol
attr inifile omnetpp.ini
attr iterationvars ""
attr iterationvarsf ""
attr measurement ""
attr network veins_proj.examples.test.Scenario
attr processid 15275
attr repetition 0
attr replication #0
attr resultdir results
attr runnumber 0
attr seedset 0
itervar iterationvarsd ""
config debug-on-errors true
config image-path ../../images:../../../veins/images:../../../inet/images:../../../veins_inet/images
config extends Base
config *.host[*].mobility.coordinateSystemModule "\"coordinateSystem\""
config *.host[*].mobility.initialAltitude 0m
config *.host[0].mobility.initialLatitude 19.4494283deg
config *.host[0].mobility.initialLongitude -99.1598713deg
config *.host[1].mobility.initialLatitude 19.4486142deg
config *.host[1].mobility.initialLongitude -99.1600466deg
config **.routingProtocol.beaconInterval 0.5s
config **.routingProtocol.proximityRadius 100m
config *.host[*].numApps 1
config *.host[*].app[0].typename inet.applications.pingapp.PingApp
config *.host[*].app[0].printPing true
config *.host[0].app[0].srcAddr "\"fec0:0:12f1:dbb8:8aa:ff:fe00:1\""
config *.host[0].app[0].destAddr "\"fec0:0:12f1:dbb8:8aa:ff:fe00:2\""
config *.host[0].app[0].startTime 1s
config network veins_proj.examples.test.Scenario
config *.node[*].mobility.typename org.car2x.veins.subprojects.veins_proj.mobility.CarMobility
config *.node[*].mobility.vertexProximityRadius 10m
config *.host[*].mobility.typename org.car2x.veins.subprojects.veins_proj.mobility.StaticHostMobility
config **.wlan[*].typename AckingWirelessInterface
config **.wlan[*].bitrate 2Mbps
config **.wlan[*].mac.headerLength 23B
config **.wlan[*].radio.typename inet.physicallayer.wireless.unitdisk.UnitDiskRadio
config **.wlan[*].radio.transmitter.communicationRange 200m
config **.wlan[*].radio.transmitter.bitrate 11Mbps
config **.wlan[*].radio.transmitter.headerLength 96b
config *.visualizer.*.mediumVisualizer.displayCommunicationRanges true
config *.visualizer.*.packetDropVisualizer[*].displayPacketDrops false
config *.visualizer.*.dataLinkVisualizer.displayLinks true
config *.visualizer.*.dataLinkVisualizer[*].fadeOutTime 2s
config *.visualizer.*.networkRouteVisualizer[*].displayRoutes true
config *.visualizer.*.networkRouteVisualizer[*].packetFilter "\"ping*\""
config *.visualizer.*.networkRouteVisualizer[*].fadeOutMode "\"simulationTime\""
config *.visualizer.*.networkRouteVisualizer[*].fadeOutTime 2s
config *.coordinateSystem.sceneLatitude 19.4512939453deg
config *.coordinateSystem.sceneLongitude -99.1625976562deg
config sim-time-limit 600s
config debug-on-errors true
config cmdenv-express-mode true
config image-path ../../images
config **.scalar-recording true
config **.vector-recording true
config *.manager.updateInterval 0.5s
config *.manager.host "\"localhost\""
config *.manager.port 9999
config *.manager.autoShutdown true
config *.manager.launchConfig "xmldoc(\"9g3qxs.launchd.xml\")"
config *.manager.moduleType "\"org.car2x.veins.subprojects.veins_proj.node.Car\""
config *.obstacles.obstacles "xmldoc(\"config.xml\", \"//AnalogueModel[@type='SimpleObstacleShadowing']/obstacles\")"

vector 0 Scenario.host[0].wlan[0].radio radioMode:vector ETV
attr interpolationmode sample-hold
attr source radioModeChanged
attr title "Radio mode, vector"
vector 1 Scenario.host[1].wlan[0].radio radioMode:vector ETV
attr interpolationmode sample-hold
attr source radioModeChanged
attr title "Radio mode, vector"
vector 2 Scenario.host[0].wlan[0].radio receptionState:vector ETV
attr interpolationmode sample-hold
attr source receptionStateChanged
attr title "Radio reception state, vector"
vector 3 Scenario.host[0].wlan[0].radio transmissionState:vector ETV
attr interpolationmode sample-hold
attr source transmissionStateChanged
attr title "Radio transmission state, vector"
vector 4 Scenario.host[1].wlan[0].radio receptionState:vector ETV
attr interpolationmode sample-hold
attr source receptionStateChanged
attr title "Radio reception state, vector"
vector 5 Scenario.host[1].wlan[0].radio transmissionState:vector ETV
attr interpolationmode sample-hold
attr source transmissionStateChanged
attr title "Radio transmission state, vector"
vector 6 Scenario.node[0].wlan[0].radio radioMode:vector ETV
attr interpolationmode sample-hold
attr source radioModeChanged
attr title "Radio mode, vector"
vector 7 Scenario.node[0].wlan[0].radio receptionState:vector ETV
attr interpolationmode sample-hold
attr source receptionStateChanged
attr title "Radio reception state, vector"
vector 8 Scenario.node[0].wlan[0].radio transmissionState:vector ETV
attr interpolationmode sample-hold
attr source transmissionStateChanged
attr title "Radio transmission state, vector"
vector 9 Scenario.node[0].ipv6.neighbourDiscovery startDad:vector ETV
attr title "DAD started, vector"
vector 10 Scenario.node[0].wlan[0].mac rcvdPkFromHl:vector(packetBytes) ETV
attr interpolationmode none
attr source packetReceivedFromUpper
attr title "packets received from higher layer, vector(packetBytes)"
vector 11 Scenario.node[0].wlan[0].mac.queue packetPushed:vector(packetBytes) ETV
attr interpolationmode none
attr title "packet pushed, vector(packetBytes)"
vector 12 Scenario.node[0].wlan[0].mac.queue queueLength:vector ETV
attr autoWarmupFilter false
attr interpolationmode sample-hold
attr source "warmup(count(packetPushed) - count(packetPulled) - count(packetRemoved) - count(packetDropped))"
attr title "queue length, vector"
attr type int
vector 13 Scenario.node[0].wlan[0].mac.queue packetPulled:vector(packetBytes) ETV
attr interpolationmode none
attr title "packet pulled, vector(packetBytes)"
vector 14 Scenario.node[0].wlan[0].mac.queue queueingTime:vector ETV
attr interpolationmode none
attr source queueingTime(packetPulled)
attr title "queueing times, vector"
attr unit s
vector 15 Scenario.node[0].wlan[0].mac sentDownPk:vector(packetBytes) ETV
attr interpolationmode none
attr source packetSentToLower
attr title "packets sent to lower layer, vector(packetBytes)"
vector 16 Scenario.host[1].wlan[0].mac rcvdPkFromLl:vector(packetBytes) ETV
attr interpolationmode none
attr source packetReceivedFromLower
attr title "packets received from lower layer, vector(packetBytes)"
vector 17 Scenario.host[1].wlan[0].mac passedUpPk:vector(packetBytes) ETV
attr interpolationmode none
attr source packetSentToUpper
attr title "packets passed to higher layer, vector(packetBytes)"
vector 18 Scenario.host[0].wlan[0].mac rcvdPkFromLl:vector(packetBytes) ETV
attr interpolationmode none
attr source packetReceivedFromLower
attr title "packets received from lower layer, vector(packetBytes)"
vector 19 Scenario.host[0].wlan[0].mac passedUpPk:vector(packetBytes) ETV
attr interpolationmode none
attr source packetSentToUpper
attr title "packets passed to higher layer, vector(packetBytes)"
vector 20 Scenario.host[1].ipv6.neighbourDiscovery startDad:vector ETV
attr title "DAD started, vector"
vector 21 Scenario.host[1].wlan[0].mac rcvdPkFromHl:vector(packetBytes) ETV
attr interpolationmode none
attr source packetReceivedFromUpper
attr title "packets received from higher layer, vector(packetBytes)"
vector 22 Scenario.host[1].wlan[0].mac.queue packetPushed:vector(packetBytes) ETV
attr interpolationmode none
attr title "packet pushed, vector(packetBytes)"
vector 23 Scenario.host[1].wlan[0].mac.queue queueLength:vector ETV
attr autoWarmupFilter false
attr interpolationmode sample-hold
attr source "warmup(count(packetPushed) - count(packetPulled) - count(packetRemoved) - count(packetDropped))"
attr title "queue length, vector"
attr type int
vector 24 Scenario.host[1].wlan[0].mac.queue packetPulled:vector(packetBytes) ETV
attr interpolationmode none
attr title "packet pulled, vector(packetBytes)"
vector 25 Scenario.host[1].wlan[0].mac.queue queueingTime:vector ETV
attr interpolationmode none
attr source queueingTime(packetPulled)
attr title "queueing times, vector"
attr unit s
vector 26 Scenario.host[1].wlan[0].mac sentDownPk:vector(packetBytes) ETV
attr interpolationmode none
attr source packetSentToLower
attr title "packets sent to lower layer, vector(packetBytes)"
vector 27 Scenario.node[0].wlan[0].mac rcvdPkFromLl:vector(packetBytes) ETV
attr interpolationmode none
attr source packetReceivedFromLower
attr title "packets received from lower layer, vector(packetBytes)"
vector 28 Scenario.node[0].wlan[0].mac passedUpPk:vector(packetBytes) ETV
attr interpolationmode none
attr source packetSentToUpper
attr title "packets passed to higher layer, vector(packetBytes)"
vector 29 Scenario.host[0].ipv6.neighbourDiscovery startDad:vector ETV
attr title "DAD started, vector"
vector 30 Scenario.host[0].wlan[0].mac rcvdPkFromHl:vector(packetBytes) ETV
attr interpolationmode none
attr source packetReceivedFromUpper
attr title "packets received from higher layer, vector(packetBytes)"
vector 31 Scenario.host[0].wlan[0].mac.queue packetPushed:vector(packetBytes) ETV
attr interpolationmode none
attr title "packet pushed, vector(packetBytes)"
vector 32 Scenario.host[0].wlan[0].mac.queue queueLength:vector ETV
attr autoWarmupFilter false
attr interpolationmode sample-hold
attr source "warmup(count(packetPushed) - count(packetPulled) - count(packetRemoved) - count(packetDropped))"
attr title "queue length, vector"
attr type int
vector 33 Scenario.host[0].wlan[0].mac.queue packetPulled:vector(packetBytes) ETV
attr interpolationmode none
attr title "packet pulled, vector(packetBytes)"
vector 34 Scenario.host[0].wlan[0].mac.queue queueingTime:vector ETV
attr interpolationmode none
attr source queueingTime(packetPulled)
attr title "queueing times, vector"
attr unit s
vector 35 Scenario.host[0].wlan[0].mac sentDownPk:vector(packetBytes) ETV
attr interpolationmode none
attr source packetSentToLower
attr title "packets sent to lower layer, vector(packetBytes)"
vector 36 Scenario.host[0].app[0] pingTxSeq:vector ETV
attr interpolationmode none
attr title "ping tx seq, vector"
vector 37 Scenario.node[1].wlan[0].radio radioMode:vector ETV
attr interpolationmode sample-hold
attr source radioModeChanged
attr title "Radio mode, vector"
vector 38 Scenario.node[1].wlan[0].radio receptionState:vector ETV
attr interpolationmode sample-hold
attr source receptionStateChanged
attr title "Radio reception state, vector"
vector 39 Scenario.node[1].wlan[0].radio transmissionState:vector ETV
attr interpolationmode sample-hold
attr source transmissionStateChanged
attr title "Radio transmission state, vector"
vector 40 Scenario.node[1].ipv6.neighbourDiscovery startDad:vector ETV
attr title "DAD started, vector"
vector 41 Scenario.node[1].wlan[0].mac rcvdPkFromHl:vector(packetBytes) ETV
attr interpolationmode none
attr source packetReceivedFromUpper
attr title "packets received from higher layer, vector(packetBytes)"
vector 42 Scenario.node[1].wlan[0].mac.queue packetPushed:vector(packetBytes) ETV
attr interpolationmode none
attr title "packet pushed, vector(packetBytes)"
vector 43 Scenario.node[1].wlan[0].mac.queue queueLength:vector ETV
attr autoWarmupFilter false
attr interpolationmode sample-hold
attr source "warmup(count(packetPushed) - count(packetPulled) - count(packetRemoved) - count(packetDropped))"
attr title "queue length, vector"
attr type int
vector 44 Scenario.node[1].wlan[0].mac.queue packetPulled:vector(packetBytes) ETV
attr interpolationmode none
attr title "packet pulled, vector(packetBytes)"
vector 45 Scenario.node[1].wlan[0].mac.queue queueingTime:vector ETV
attr interpolationmode none
attr source queueingTime(packetPulled)
attr title "queueing times, vector"
attr unit s
vector 46 Scenario.node[1].wlan[0].mac sentDownPk:vector(packetBytes) ETV
attr interpolationmode none
attr source packetSentToLower
attr title "packets sent to lower layer, vector(packetBytes)"
vector 47 Scenario.node[2].wlan[0].radio radioMode:vector ETV
attr interpolationmode sample-hold
attr source radioModeChanged
attr title "Radio mode, vector"
vector 48 Scenario.node[2].wlan[0].radio receptionState:vector ETV
attr interpolationmode sample-hold
attr source receptionStateChanged
attr title "Radio reception state, vector"
vector 49 Scenario.node[2].wlan[0].radio transmissionState:vector ETV
attr interpolationmode sample-hold
attr source transmissionStateChanged
attr title "Radio transmission state, vector"
vector 50 Scenario.node[2].ipv6.neighbourDiscovery startDad:vector ETV
attr title "DAD started, vector"
vector 51 Scenario.node[2].wlan[0].mac rcvdPkFromHl:vector(packetBytes) ETV
attr interpolationmode none
attr source packetReceivedFromUpper
attr title "packets received from higher layer, vector(packetBytes)"
vector 52 Scenario.node[2].wlan[0].mac.queue packetPushed:vector(packetBytes) ETV
attr interpolationmode none
attr title "packet pushed, vector(packetBytes)"
vector 53 Scenario.node[2].wlan[0].mac.queue queueLength:vector ETV
attr autoWarmupFilter false
attr interpolationmode sample-hold
attr source "warmup(count(packetPushed) - count(packetPulled) - count(packetRemoved) - count(packetDropped))"
attr title "queue length, vector"
attr type int
vector 54 Scenario.node[2].wlan[0].mac.queue packetPulled:vector(packetBytes) ETV
attr interpolationmode none
attr title "packet pulled, vector(packetBytes)"
vector 55 Scenario.node[2].wlan[0].mac.queue queueingTime:vector ETV
attr interpolationmode none
attr source queueingTime(packetPulled)
attr title "queueing times, vector"
attr unit s
vector 56 Scenario.node[2].wlan[0].mac sentDownPk:vector(packetBytes) ETV
attr interpolationmode none
attr source packetSentToLower
attr title "packets sent to lower layer, vector(packetBytes)"
vector 57 Scenario.node[3].wlan[0].radio radioMode:vector ETV
attr interpolationmode sample-hold
attr source radioModeChanged
attr title "Radio mode, vector"
vector 58 Scenario.node[3].wlan[0].radio receptionState:vector ETV
attr interpolationmode sample-hold
attr source receptionStateChanged
attr title "Radio reception state, vector"
vector 59 Scenario.node[3].wlan[0].radio transmissionState:vector ETV
attr interpolationmode sample-hold
attr source transmissionStateChanged
attr title "Radio transmission state, vector"
vector 60 Scenario.host[1].wlan[0].mac packetDropNotAddressedToUs:vector(packetBytes) ETV
attr interpolationmode none
attr source packetDropReasonIsNotAddressedToUs(packetDropped)
attr title "packet drop: not addressed to us, vector(packetBytes)"
vector 61 Scenario.host[0].wlan[0].mac packetDropNotAddressedToUs:vector(packetBytes) ETV
attr interpolationmode none
attr source packetDropReasonIsNotAddressedToUs(packetDropped)
attr title "packet drop: not addressed to us, vector(packetBytes)"
vector 62 Scenario.host[0].app[0] pingRxSeq:vector ETV
attr interpolationmode none
attr title "ping rx seq, vector"
vector 63 Scenario.host[0].app[0] rtt:vector ETV
attr interpolationmode none
attr title "ping round-trip time, vector"
attr unit s
vector 64 Scenario.host[0].app[0] numLost:vector ETV
attr interpolationmode none
attr title "pings lost, vector"
vector 65 Scenario.node[3].ipv6.neighbourDiscovery startDad:vector ETV
attr title "DAD started, vector"
vector 66 Scenario.node[3].wlan[0].mac rcvdPkFromHl:vector(packetBytes) ETV
attr interpolationmode none
attr source packetReceivedFromUpper
attr title "packets received from higher layer, vector(packetBytes)"
vector 67 Scenario.node[3].wlan[0].mac.queue packetPushed:vector(packetBytes) ETV
attr interpolationmode none
attr title "packet pushed, vector(packetBytes)"
vector 68 Scenario.node[3].wlan[0].mac.queue queueLength:vector ETV
attr autoWarmupFilter false
attr interpolationmode sample-hold
attr source "warmup(count(packetPushed) - count(packetPulled) - count(packetRemoved) - count(packetDropped))"
attr title "queue length, vector"
attr type int
vector 69 Scenario.node[3].wlan[0].mac.queue packetPulled:vector(packetBytes) ETV
attr interpolationmode none
attr title "packet pulled, vector(packetBytes)"
vector 70 Scenario.node[3].wlan[0].mac.queue queueingTime:vector ETV
attr interpolationmode none
attr source queueingTime(packetPulled)
attr title "queueing times, vector"
attr unit s
vector 71 Scenario.node[3].wlan[0].mac sentDownPk:vector(packetBytes) ETV
attr interpolationmode none
attr source packetSentToLower
attr title "packets sent to lower layer, vector(packetBytes)"
vector 72 Scenario.node[2].wlan[0].mac rcvdPkFromLl:vector(packetBytes) ETV
attr interpolationmode none
attr source packetReceivedFromLower
attr title "packets received from lower layer, vector(packetBytes)"
vector 73 Scenario.node[2].wlan[0].mac passedUpPk:vector(packetBytes) ETV
attr interpolationmode none
attr source packetSentToUpper
attr title "packets passed to higher layer, vector(packetBytes)"
vector 74 Scenario.node[3].wlan[0].mac rcvdPkFromLl:vector(packetBytes) ETV
attr interpolationmode none
attr source packetReceivedFromLower
attr title "packets received from lower layer, vector(packetBytes)"
vector 75 Scenario.node[3].wlan[0].mac passedUpPk:vector(packetBytes) ETV
attr interpolationmode none
attr source packetSentToUpper
attr title "packets passed to higher layer, vector(packetBytes)"
vector 76 Scenario.node[4].wlan[0].radio radioMode:vector ETV
attr interpolationmode sample-hold
attr source radioModeChanged
attr title "Radio mode, vector"
vector 77 Scenario.node[4].wlan[0].radio receptionState:vector ETV
attr interpolationmode sample-hold
attr source receptionStateChanged
attr title "Radio reception state, vector"
vector 78 Scenario.node[4].wlan[0].radio transmissionState:vector ETV
attr interpolationmode sample-hold
attr source transmissionStateChanged
attr title "Radio transmission state, vector"
vector 79 Scenario.node[4].ipv6.neighbourDiscovery startDad:vector ETV
attr title "DAD started, vector"
vector 80 Scenario.node[4].wlan[0].mac rcvdPkFromHl:vector(packetBytes) ETV
attr interpolationmode none
attr source packetReceivedFromUpper
attr title "packets received from higher layer, vector(packetBytes)"
vector 81 Scenario.node[4].wlan[0].mac.queue packetPushed:vector(packetBytes) ETV
attr interpolationmode none
attr title "packet pushed, vector(packetBytes)"
vector 82 Scenario.node[4].wlan[0].mac.queue queueLength:vector ETV
attr autoWarmupFilter false
attr interpolationmode sample-hold
attr source "warmup(count(packetPushed) - count(packetPulled) - count(packetRemoved) - count(packetDropped))"
attr title "queue length, vector"
attr type int
vector 83 Scenario.node[4].wlan[0].mac.queue packetPulled:vector(packetBytes) ETV
attr interpolationmode none
attr title "packet pulled, vector(packetBytes)"
vector 84 Scenario.node[4].wlan[0].mac.queue queueingTime:vector ETV
attr interpolationmode none
attr source queueingTime(packetPulled)
attr title "queueing times, vector"
attr unit s
vector 85 Scenario.node[4].wlan[0].mac sentDownPk:vector(packetBytes) ETV
attr interpolationmode none
attr source packetSentToLower
attr title "packets sent to lower layer, vector(packetBytes)"
vector 86 Scenario.node[5].wlan[0].radio radioMode:vector ETV
attr interpolationmode sample-hold
attr source radioModeChanged
attr title "Radio mode, vector"
vector 87 Scenario.node[5].wlan[0].radio receptionState:vector ETV
attr interpolationmode sample-hold
attr source receptionStateChanged
attr title "Radio reception state, vector"
vector 88 Scenario.node[5].wlan[0].radio transmissionState:vector ETV
attr interpolationmode sample-hold
attr source transmissionStateChanged
attr title "Radio transmission state, vector"
vector 89 Scenario.node[5].ipv6.neighbourDiscovery startDad:vector ETV
attr title "DAD started, vector"
vector 90 Scenario.node[5].wlan[0].mac rcvdPkFromHl:vector(packetBytes) ETV
attr interpolationmode none
attr source packetReceivedFromUpper
attr title "packets received from higher layer, vector(packetBytes)"
vector 91 Scenario.node[5].wlan[0].mac.queue packetPushed:vector(packetBytes) ETV
attr interpolationmode none
attr title "packet pushed, vector(packetBytes)"
vector 92 Scenario.node[5].wlan[0].mac.queue queueLength:vector ETV
attr autoWarmupFilter false
attr interpolationmode sample-hold
attr source "warmup(count(packetPushed) - count(packetPulled) - count(packetRemoved) - count(packetDropped))"
attr title "queue length, vector"
attr type int
vector 93 Scenario.node[5].wlan[0].mac.queue packetPulled:vector(packetBytes) ETV
attr interpolationmode none
attr title "packet pulled, vector(packetBytes)"
vector 94 Scenario.node[5].wlan[0].mac.queue queueingTime:vector ETV
attr interpolationmode none
attr source queueingTime(packetPulled)
attr title "queueing times, vector"
attr unit s
vector 95 Scenario.node[5].wlan[0].mac sentDownPk:vector(packetBytes) ETV
attr interpolationmode none
attr source packetSentToLower
attr title "packets sent to lower layer, vector(packetBytes)"
vector 96 Scenario.node[5].wlan[0].mac rcvdPkFromLl:vector(packetBytes) ETV
attr interpolationmode none
attr source packetReceivedFromLower
attr title "packets received from lower layer, vector(packetBytes)"
vector 97 Scenario.node[5].wlan[0].mac passedUpPk:vector(packetBytes) ETV
attr interpolationmode none
attr source packetSentToUpper
attr title "packets passed to higher layer, vector(packetBytes)"
vector 98 Scenario.node[6].wlan[0].radio radioMode:vector ETV
attr interpolationmode sample-hold
attr source radioModeChanged
attr title "Radio mode, vector"
vector 99 Scenario.node[6].wlan[0].radio receptionState:vector ETV
attr interpolationmode sample-hold
attr source receptionStateChanged
attr title "Radio reception state, vector"
vector 100 Scenario.node[6].wlan[0].radio transmissionState:vector ETV
attr interpolationmode sample-hold
attr source transmissionStateChanged
attr title "Radio transmission state, vector"
vector 101 Scenario.node[6].ipv6.neighbourDiscovery startDad:vector ETV
attr title "DAD started, vector"
vector 102 Scenario.node[6].wlan[0].mac rcvdPkFromHl:vector(packetBytes) ETV
attr interpolationmode none
attr source packetReceivedFromUpper
attr title "packets received from higher layer, vector(packetBytes)"
vector 103 Scenario.node[6].wlan[0].mac.queue packetPushed:vector(packetBytes) ETV
attr interpolationmode none
attr title "packet pushed, vector(packetBytes)"
vector 104 Scenario.node[6].wlan[0].mac.queue queueLength:vector ETV
attr autoWarmupFilter false
attr interpolationmode sample-hold
attr source "warmup(count(packetPushed) - count(packetPulled) - count(packetRemoved) - count(packetDropped))"
attr title "queue length, vector"
attr type int
vector 105 Scenario.node[6].wlan[0].mac.queue packetPulled:vector(packetBytes) ETV
attr interpolationmode none
attr title "packet pulled, vector(packetBytes)"
vector 106 Scenario.node[6].wlan[0].mac.queue queueingTime:vector ETV
attr interpolationmode none
attr source queueingTime(packetPulled)
attr title "queueing times, vector"
attr unit s
vector 107 Scenario.node[6].wlan[0].mac sentDownPk:vector(packetBytes) ETV
attr interpolationmode none
attr source packetSentToLower
attr title "packets sent to lower layer, vector(packetBytes)"
vector 108 Scenario.node[1].wlan[0].mac rcvdPkFromLl:vector(packetBytes) ETV
attr interpolationmode none
attr source packetReceivedFromLower
attr title "packets received from lower layer, vector(packetBytes)"
vector 109 Scenario.node[1].wlan[0].mac passedUpPk:vector(packetBytes) ETV
attr interpolationmode none
attr source packetSentToUpper
attr title "packets passed to higher layer, vector(packetBytes)"
vector 110 Scenario.node[6].wlan[0].mac rcvdPkFromLl:vector(packetBytes) ETV
attr interpolationmode none
attr source packetReceivedFromLower
attr title "packets received from lower layer, vector(packetBytes)"
vector 111 Scenario.node[6].wlan[0].mac passedUpPk:vector(packetBytes) ETV
attr interpolationmode none
attr source packetSentToUpper
attr title "packets passed to higher layer, vector(packetBytes)"
vector 112 Scenario.node[7].wlan[0].radio radioMode:vector ETV
attr interpolationmode sample-hold
attr source radioModeChanged
attr title "Radio mode, vector"
vector 113 Scenario.node[7].wlan[0].radio receptionState:vector ETV
attr interpolationmode sample-hold
attr source receptionStateChanged
attr title "Radio reception state, vector"
vector 114 Scenario.node[7].wlan[0].radio transmissionState:vector ETV
attr interpolationmode sample-hold
attr source transmissionStateChanged
attr title "Radio transmission state, vector"
vector 115 Scenario.node[7].ipv6.neighbourDiscovery startDad:vector ETV
attr title "DAD started, vector"
vector 116 Scenario.node[7].wlan[0].mac rcvdPkFromHl:vector(packetBytes) ETV
attr interpolationmode none
attr source packetReceivedFromUpper
attr title "packets received from higher layer, vector(packetBytes)"
vector 117 Scenario.node[7].wlan[0].mac.queue packetPushed:vector(packetBytes) ETV
attr interpolationmode none
attr title "packet pushed, vector(packetBytes)"
vector 118 Scenario.node[7].wlan[0].mac.queue queueLength:vector ETV
attr autoWarmupFilter false
attr interpolationmode sample-hold
attr source "warmup(count(packetPushed) - count(packetPulled) - count(packetRemoved) - count(packetDropped))"
attr title "queue length, vector"
attr type int
vector 119 Scenario.node[7].wlan[0].mac.queue packetPulled:vector(packetBytes) ETV
attr interpolationmode none
attr title "packet pulled, vector(packetBytes)"
vector 120 Scenario.node[7].wlan[0].mac.queue queueingTime:vector ETV
attr interpolationmode none
attr source queueingTime(packetPulled)
attr title "queueing times, vector"
attr unit s
vector 121 Scenario.node[7].wlan[0].mac sentDownPk:vector(packetBytes) ETV
attr interpolationmode none
attr source packetSentToLower
attr title "packets sent to lower layer, vector(packetBytes)"
vector 122 Scenario.node[7].wlan[0].mac rcvdPkFromLl:vector(packetBytes) ETV
attr interpolationmode none
attr source packetReceivedFromLower
attr title "packets received from lower layer, vector(packetBytes)"
vector 123 Scenario.node[7].wlan[0].mac passedUpPk:vector(packetBytes) ETV
attr interpolationmode none
attr source packetSentToUpper
attr title "packets passed to higher layer, vector(packetBytes)"
vector 124 Scenario.node[8].wlan[0].radio radioMode:vector ETV
attr interpolationmode sample-hold
attr source radioModeChanged
attr title "Radio mode, vector"
vector 125 Scenario.node[8].wlan[0].radio receptionState:vector ETV
attr interpolationmode sample-hold
attr source receptionStateChanged
attr title "Radio reception state, vector"
vector 126 Scenario.node[8].wlan[0].radio transmissionState:vector ETV
attr interpolationmode sample-hold
attr source transmissionStateChanged
attr title "Radio transmission state, vector"
vector 127 Scenario.node[8].ipv6.neighbourDiscovery startDad:vector ETV
attr title "DAD started, vector"
vector 128 Scenario.node[8].wlan[0].mac rcvdPkFromHl:vector(packetBytes) ETV
attr interpolationmode none
attr source packetReceivedFromUpper
attr title "packets received from higher layer, vector(packetBytes)"
vector 129 Scenario.node[8].wlan[0].mac.queue packetPushed:vector(packetBytes) ETV
attr interpolationmode none
attr title "packet pushed, vector(packetBytes)"
vector 130 Scenario.node[8].wlan[0].mac.queue queueLength:vector ETV
attr autoWarmupFilter false
attr interpolationmode sample-hold
attr source "warmup(count(packetPushed) - count(packetPulled) - count(packetRemoved) - count(packetDropped))"
attr title "queue length, vector"
attr type int
vector 131 Scenario.node[8].wlan[0].mac.queue packetPulled:vector(packetBytes) ETV
attr interpolationmode none
attr title "packet pulled, vector(packetBytes)"
vector 132 Scenario.node[8].wlan[0].mac.queue queueingTime:vector ETV
attr interpolationmode none
attr source queueingTime(packetPulled)
attr title "queueing times, vector"
attr unit s
vector 133 Scenario.node[8].wlan[0].mac sentDownPk:vector(packetBytes) ETV
attr interpolationmode none
attr source packetSentToLower
attr title "packets sent to lower layer, vector(packetBytes)"
vector 134 Scenario.node[9].wlan[0].radio radioMode:vector ETV
attr interpolationmode sample-hold
attr source radioModeChanged
attr title "Radio mode, vector"
vector 135 Scenario.node[9].wlan[0].radio receptionState:vector ETV
attr interpolationmode sample-hold
attr source receptionStateChanged
attr title "Radio reception state, vector"
vector 136 Scenario.node[9].wlan[0].radio transmissionState:vector ETV
attr interpolationmode sample-hold
attr source transmissionStateChanged
attr title "Radio transmission state, vector"
vector 137 Scenario.node[9].ipv6.neighbourDiscovery startDad:vector ETV
attr title "DAD started, vector"
vector 138 Scenario.node[9].wlan[0].mac rcvdPkFromHl:vector(packetBytes) ETV
attr interpolationmode none
attr source packetReceivedFromUpper
attr title "packets received from higher layer, vector(packetBytes)"
vector 139 Scenario.node[9].wlan[0].mac.queue packetPushed:vector(packetBytes) ETV
attr interpolationmode none
attr title "packet pushed, vector(packetBytes)"
vector 140 Scenario.node[9].wlan[0].mac.queue queueLength:vector ETV
attr autoWarmupFilter false
attr interpolationmode sample-hold
attr source "warmup(count(packetPushed) - count(packetPulled) - count(packetRemoved) - count(packetDropped))"
attr title "queue length, vector"
attr type int
vector 141 Scenario.node[9].wlan[0].mac.queue packetPulled:vector(packetBytes) ETV
attr interpolationmode none
attr title "packet pulled, vector(packetBytes)"
vector 142 Scenario.node[9].wlan[0].mac.queue queueingTime:vector ETV
attr interpolationmode none
attr source queueingTime(packetPulled)
attr title "queueing times, vector"
attr unit s
vector 143 Scenario.node[9].wlan[0].mac sentDownPk:vector(packetBytes) ETV
attr interpolationmode none
attr source packetSentToLower
attr title "packets sent to lower layer, vector(packetBytes)"
vector 144 Scenario.node[10].wlan[0].radio radioMode:vector ETV
attr interpolationmode sample-hold
attr source radioModeChanged
attr title "Radio mode, vector"
vector 145 Scenario.node[10].wlan[0].radio receptionState:vector ETV
attr interpolationmode sample-hold
attr source receptionStateChanged
attr title "Radio reception state, vector"
vector 146 Scenario.node[10].wlan[0].radio transmissionState:vector ETV
attr interpolationmode sample-hold
attr source transmissionStateChanged
attr title "Radio transmission state, vector"
vector 147 Scenario.node[10].ipv6.neighbourDiscovery startDad:vector ETV
attr title "DAD started, vector"
vector 148 Scenario.node[10].wlan[0].mac rcvdPkFromHl:vector(packetBytes) ETV
attr interpolationmode none
attr source packetReceivedFromUpper
attr title "packets received from higher layer, vector(packetBytes)"
vector 149 Scenario.node[10].wlan[0].mac.queue packetPushed:vector(packetBytes) ETV
attr interpolationmode none
attr title "packet pushed, vector(packetBytes)"
vector 150 Scenario.node[10].wlan[0].mac.queue queueLength:vector ETV
attr autoWarmupFilter false
attr interpolationmode sample-hold
attr source "warmup(count(packetPushed) - count(packetPulled) - count(packetRemoved) - count(packetDropped))"
attr title "queue length, vector"
attr type int
vector 151 Scenario.node[10].wlan[0].mac.queue packetPulled:vector(packetBytes) ETV
attr interpolationmode none
attr title "packet pulled, vector(packetBytes)"
vector 152 Scenario.node[10].wlan[0].mac.queue queueingTime:vector ETV
attr interpolationmode none
attr source queueingTime(packetPulled)
attr title "queueing times, vector"
attr unit s
vector 153 Scenario.node[10].wlan[0].mac sentDownPk:vector(packetBytes) ETV
attr interpolationmode none
attr source packetSentToLower
attr title "packets sent to lower layer, vector(packetBytes)"
vector 154 Scenario.node[10].wlan[0].mac rcvdPkFromLl:vector(packetBytes) ETV
attr interpolationmode none
attr source packetReceivedFromLower
attr title "packets received from lower layer, vector(packetBytes)"
vector 155 Scenario.node[10].wlan[0].mac passedUpPk:vector(packetBytes) ETV
attr interpolationmode none
attr source packetSentToUpper
attr title "packets passed to higher layer, vector(packetBytes)"
vector 156 Scenario.node[11].wlan[0].radio radioMode:vector ETV
attr interpolationmode sample-hold
attr source radioModeChanged
attr title "Radio mode, vector"
vector 157 Scenario.node[11].wlan[0].radio receptionState:vector ETV
attr interpolationmode sample-hold
attr source receptionStateChanged
attr title "Radio reception state, vector"
vector 158 Scenario.node[11].wlan[0].radio transmissionState:vector ETV
attr interpolationmode sample-hold
attr source transmissionStateChanged
attr title "Radio transmission state, vector"
vector 159 Scenario.node[11].wlan[0].mac rcvdPkFromLl:vector(packetBytes) ETV
attr interpolationmode none
attr source packetReceivedFromLower
attr title "packets received from lower layer, vector(packetBytes)"
vector 160 Scenario.node[11].wlan[0].mac passedUpPk:vector(packetBytes) ETV
attr interpolationmode none
attr source packetSentToUpper
attr title "packets passed to higher layer, vector(packetBytes)"
vector 161 Scenario.node[11].ipv6.neighbourDiscovery startDad:vector ETV
attr title "DAD started, vector"
vector 162 Scenario.node[11].wlan[0].mac rcvdPkFromHl:vector(packetBytes) ETV
attr interpolationmode none
attr source packetReceivedFromUpper
attr title "packets received from higher layer, vector(packetBytes)"
vector 163 Scenario.node[11].wlan[0].mac.queue packetPushed:vector(packetBytes) ETV
attr interpolationmode none
attr title "packet pushed, vector(packetBytes)"
vector 164 Scenario.node[11].wlan[0].mac.queue queueLength:vector ETV
attr autoWarmupFilter false
attr interpolationmode sample-hold
attr source "warmup(count(packetPushed) - count(packetPulled) - count(packetRemoved) - count(packetDropped))"
attr title "queue length, vector"
attr type int
vector 165 Scenario.node[11].wlan[0].mac.queue packetPulled:vector(packetBytes) ETV
attr interpolationmode none
attr title "packet pulled, vector(packetBytes)"
vector 166 Scenario.node[11].wlan[0].mac.queue queueingTime:vector ETV
attr interpolationmode none
attr source queueingTime(packetPulled)
attr title "queueing times, vector"
attr unit s
vector 167 Scenario.node[11].wlan[0].mac sentDownPk:vector(packetBytes) ETV
attr interpolationmode none
attr source packetSentToLower
attr title "packets sent to lower layer, vector(packetBytes)"
vector 168 Scenario.node[12].wlan[0].radio radioMode:vector ETV
attr interpolationmode sample-hold
attr source radioModeChanged
attr title "Radio mode, vector"
vector 169 Scenario.node[12].wlan[0].radio receptionState:vector ETV
attr interpolationmode sample-hold
attr source receptionStateChanged
attr title "Radio reception state, vector"
vector 170 Scenario.node[12].wlan[0].radio transmissionState:vector ETV
attr interpolationmode sample-hold
attr source transmissionStateChanged
attr title "Radio transmission state, vector"
vector 171 Scenario.node[12].ipv6.neighbourDiscovery startDad:vector ETV
attr title "DAD started, vector"
vector 172 Scenario.node[12].wlan[0].mac rcvdPkFromHl:vector(packetBytes) ETV
attr interpolationmode none
attr source packetReceivedFromUpper
attr title "packets received from higher layer, vector(packetBytes)"
vector 173 Scenario.node[12].wlan[0].mac.queue packetPushed:vector(packetBytes) ETV
attr interpolationmode none
attr title "packet pushed, vector(packetBytes)"
vector 174 Scenario.node[12].wlan[0].mac.queue queueLength:vector ETV
attr autoWarmupFilter false
attr interpolationmode sample-hold
attr source "warmup(count(packetPushed) - count(packetPulled) - count(packetRemoved) - count(packetDropped))"
attr title "queue length, vector"
attr type int
vector 175 Scenario.node[12].wlan[0].mac.queue packetPulled:vector(packetBytes) ETV
attr interpolationmode none
attr title "packet pulled, vector(packetBytes)"
vector 176 Scenario.node[12].wlan[0].mac.queue queueingTime:vector ETV
attr interpolationmode none
attr source queueingTime(packetPulled)
attr title "queueing times, vector"
attr unit s
vector 177 Scenario.node[12].wlan[0].mac sentDownPk:vector(packetBytes) ETV
attr interpolationmode none
attr source packetSentToLower
attr title "packets sent to lower layer, vector(packetBytes)"
vector 178 Scenario.node[4].wlan[0].mac rcvdPkFromLl:vector(packetBytes) ETV
attr interpolationmode none
attr source packetReceivedFromLower
attr title "packets received from lower layer, vector(packetBytes)"
vector 179 Scenario.node[4].wlan[0].mac passedUpPk:vector(packetBytes) ETV
attr interpolationmode none
attr source packetSentToUpper
attr title "packets passed to higher layer, vector(packetBytes)"
vector 180 Scenario.node[13].wlan[0].radio radioMode:vector ETV
attr interpolationmode sample-hold
attr source radioModeChanged
attr title "Radio mode, vector"
vector 181 Scenario.node[13].wlan[0].radio receptionState:vector ETV
attr interpolationmode sample-hold
attr source receptionStateChanged
attr title "Radio reception state, vector"
vector 182 Scenario.node[13].wlan[0].radio transmissionState:vector ETV
attr interpolationmode sample-hold
attr source transmissionStateChanged
attr title "Radio transmission state, vector"
vector 183 Scenario.node[13].ipv6.neighbourDiscovery startDad:vector ETV
attr title "DAD started, vector"
vector 184 Scenario.node[13].wlan[0].mac rcvdPkFromHl:vector(packetBytes) ETV
attr interpolationmode none
attr source packetReceivedFromUpper
attr title "packets received from higher layer, vector(packetBytes)"
vector 185 Scenario.node[13].wlan[0].mac.queue packetPushed:vector(packetBytes) ETV
attr interpolationmode none
attr title "packet pushed, vector(packetBytes)"
vector 186 Scenario.node[13].wlan[0].mac.queue queueLength:vector ETV
attr autoWarmupFilter false
attr interpolationmode sample-hold
attr source "warmup(count(packetPushed) - count(packetPulled) - count(packetRemoved) - count(packetDropped))"
attr title "queue length, vector"
attr type int
vector 187 Scenario.node[13].wlan[0].mac.queue packetPulled:vector(packetBytes) ETV
attr interpolationmode none
attr title "packet pulled, vector(packetBytes)"
vector 188 Scenario.node[13].wlan[0].mac.queue queueingTime:vector ETV
attr interpolationmode none
attr source queueingTime(packetPulled)
attr title "queueing times, vector"
attr unit s
vector 189 Scenario.node[13].wlan[0].mac sentDownPk:vector(packetBytes) ETV
attr interpolationmode none
attr source packetSentToLower
attr title "packets sent to lower layer, vector(packetBytes)"
vector 190 Scenario.node[9].wlan[0].mac rcvdPkFromLl:vector(packetBytes) ETV
attr interpolationmode none
attr source packetReceivedFromLower
attr title "packets received from lower layer, vector(packetBytes)"
vector 191 Scenario.node[9].wlan[0].mac passedUpPk:vector(packetBytes) ETV
attr interpolationmode none
attr source packetSentToUpper
attr title "packets passed to higher layer, vector(packetBytes)"
vector 192 Scenario.node[8].wlan[0].mac rcvdPkFromLl:vector(packetBytes) ETV
attr interpolationmode none
attr source packetReceivedFromLower
attr title "packets received from lower layer, vector(packetBytes)"
vector 193 Scenario.node[8].wlan[0].mac passedUpPk:vector(packetBytes) ETV
attr interpolationmode none
attr source packetSentToUpper
attr title "packets passed to higher layer, vector(packetBytes)"
vector 194 Scenario.node[12].wlan[0].mac rcvdPkFromLl:vector(packetBytes) ETV
attr interpolationmode none
attr source packetReceivedFromLower
attr title "packets received from lower layer, vector(packetBytes)"
vector 195 Scenario.node[12].wlan[0].mac passedUpPk:vector(packetBytes) ETV
attr interpolationmode none
attr source packetSentToUpper
attr title "packets passed to higher layer, vector(packetBytes)"
vector 196 Scenario.node[13].wlan[0].mac rcvdPkFromLl:vector(packetBytes) ETV
attr interpolationmode none
attr source packetReceivedFromLower
attr title "packets received from lower layer, vector(packetBytes)"
vector 197 Scenario.node[13].wlan[0].mac passedUpPk:vector(packetBytes) ETV
attr interpolationmode none
attr source packetSentToUpper
attr title "packets passed to higher layer, vector(packetBytes)"
vector 198 Scenario.node[14].wlan[0].radio radioMode:vector ETV
attr interpolationmode sample-hold
attr source radioModeChanged
attr title "Radio mode, vector"
vector 199 Scenario.node[14].wlan[0].radio receptionState:vector ETV
attr interpolationmode sample-hold
attr source receptionStateChanged
attr title "Radio reception state, vector"
vector 200 Scenario.node[14].wlan[0].radio transmissionState:vector ETV
attr interpolationmode sample-hold
attr source transmissionStateChanged
attr title "Radio transmission state, vector"
vector 201 Scenario.node[14].wlan[0].mac rcvdPkFromLl:vector(packetBytes) ETV
attr interpolationmode none
attr source packetReceivedFromLower
attr title "packets received from lower layer, vector(packetBytes)"
vector 202 Scenario.node[14].wlan[0].mac packetDropNotAddressedToUs:vector(packetBytes) ETV
attr interpolationmode none
attr source packetDropReasonIsNotAddressedToUs(packetDropped)
attr title "packet drop: not addressed to us, vector(packetBytes)"
vector 203 Scenario.node[14].ipv6.neighbourDiscovery startDad:vector ETV
attr title "DAD started, vector"
vector 204 Scenario.node[14].wlan[0].mac rcvdPkFromHl:vector(packetBytes) ETV
attr interpolationmode none
attr source packetReceivedFromUpper
attr title "packets received from higher layer, vector(packetBytes)"
vector 205 Scenario.node[14].wlan[0].mac.queue packetPushed:vector(packetBytes) ETV
attr interpolationmode none
attr title "packet pushed, vector(packetBytes)"
vector 206 Scenario.node[14].wlan[0].mac.queue queueLength:vector ETV
attr autoWarmupFilter false
attr interpolationmode sample-hold
attr source "warmup(count(packetPushed) - count(packetPulled) - count(packetRemoved) - count(packetDropped))"
attr title "queue length, vector"
attr type int
vector 207 Scenario.node[14].wlan[0].mac.queue packetPulled:vector(packetBytes) ETV
attr interpolationmode none
attr title "packet pulled, vector(packetBytes)"
vector 208 Scenario.node[14].wlan[0].mac.queue queueingTime:vector ETV
attr interpolationmode none
attr source queueingTime(packetPulled)
attr title "queueing times, vector"
attr unit s
vector 209 Scenario.node[14].wlan[0].mac sentDownPk:vector(packetBytes) ETV
attr interpolationmode none
attr source packetSentToLower
attr title "packets sent to lower layer, vector(packetBytes)"
vector 210 Scenario.node[15].wlan[0].radio radioMode:vector ETV
attr interpolationmode sample-hold
attr source radioModeChanged
attr title "Radio mode, vector"
vector 211 Scenario.node[15].wlan[0].radio receptionState:vector ETV
attr interpolationmode sample-hold
attr source receptionStateChanged
attr title "Radio reception state, vector"
vector 212 Scenario.node[15].wlan[0].radio transmissionState:vector ETV
attr interpolationmode sample-hold
attr source transmissionStateChanged
attr title "Radio transmission state, vector"
vector 213 Scenario.node[15].ipv6.neighbourDiscovery startDad:vector ETV
attr title "DAD started, vector"
vector 214 Scenario.node[15].wlan[0].mac rcvdPkFromHl:vector(packetBytes) ETV
attr interpolationmode none
attr source packetReceivedFromUpper
attr title "packets received from higher layer, vector(packetBytes)"
vector 215 Scenario.node[15].wlan[0].mac.queue packetPushed:vector(packetBytes) ETV
attr interpolationmode none
attr title "packet pushed, vector(packetBytes)"
vector 216 Scenario.node[15].wlan[0].mac.queue queueLength:vector ETV
attr autoWarmupFilter false
attr interpolationmode sample-hold
attr source "warmup(count(packetPushed) - count(packetPulled) - count(packetRemoved) - count(packetDropped))"
attr title "queue length, vector"
attr type int
vector 217 Scenario.node[15].wlan[0].mac.queue packetPulled:vector(packetBytes) ETV
attr interpolationmode none
attr title "packet pulled, vector(packetBytes)"
vector 218 Scenario.node[15].wlan[0].mac.queue queueingTime:vector ETV
attr interpolationmode none
attr source queueingTime(packetPulled)
attr title "queueing times, vector"
attr unit s
vector 219 Scenario.node[15].wlan[0].mac sentDownPk:vector(packetBytes) ETV
attr interpolationmode none
attr source packetSentToLower
attr title "packets sent to lower layer, vector(packetBytes)"
vector 220 Scenario.node[14].wlan[0].mac passedUpPk:vector(packetBytes) ETV
attr interpolationmode none
attr source packetSentToUpper
attr title "packets passed to higher layer, vector(packetBytes)"
vector 221 Scenario.node[16].wlan[0].radio radioMode:vector ETV
attr interpolationmode sample-hold
attr source radioModeChanged
attr title "Radio mode, vector"
vector 222 Scenario.node[16].wlan[0].radio receptionState:vector ETV
attr interpolationmode sample-hold
attr source receptionStateChanged
attr title "Radio reception state, vector"
vector 223 Scenario.node[16].wlan[0].radio transmissionState:vector ETV
attr interpolationmode sample-hold
attr source transmissionStateChanged
attr title "Radio transmission state, vector"
vector 224 Scenario.node[16].ipv6.neighbourDiscovery startDad:vector ETV
attr title "DAD started, vector"
vector 225 Scenario.node[16].wlan[0].mac rcvdPkFromHl:vector(packetBytes) ETV
attr interpolationmode none
attr source packetReceivedFromUpper
attr title "packets received from higher layer, vector(packetBytes)"
vector 226 Scenario.node[16].wlan[0].mac.queue packetPushed:vector(packetBytes) ETV
attr interpolationmode none
attr title "packet pushed, vector(packetBytes)"
vector 227 Scenario.node[16].wlan[0].mac.queue queueLength:vector ETV
attr autoWarmupFilter false
attr interpolationmode sample-hold
attr source "warmup(count(packetPushed) - count(packetPulled) - count(packetRemoved) - count(packetDropped))"
attr title "queue length, vector"
attr type int
vector 228 Scenario.node[16].wlan[0].mac.queue packetPulled:vector(packetBytes) ETV
attr interpolationmode none
attr title "packet pulled, vector(packetBytes)"
vector 229 Scenario.node[16].wlan[0].mac.queue queueingTime:vector ETV
attr interpolationmode none
attr source queueingTime(packetPulled)
attr title "queueing times, vector"
attr unit s
vector 230 Scenario.node[16].wlan[0].mac sentDownPk:vector(packetBytes) ETV
attr interpolationmode none
attr source packetSentToLower
attr title "packets sent to lower layer, vector(packetBytes)"
vector 231 Scenario.node[16].wlan[0].mac rcvdPkFromLl:vector(packetBytes) ETV
attr interpolationmode none
attr source packetReceivedFromLower
attr title "packets received from lower layer, vector(packetBytes)"
vector 232 Scenario.node[16].wlan[0].mac passedUpPk:vector(packetBytes) ETV
attr interpolationmode none
attr source packetSentToUpper
attr title "packets passed to higher layer, vector(packetBytes)"
vector 233 Scenario.node[17].wlan[0].radio radioMode:vector ETV
attr interpolationmode sample-hold
attr source radioModeChanged
attr title "Radio mode, vector"
vector 234 Scenario.node[17].wlan[0].radio receptionState:vector ETV
attr interpolationmode sample-hold
attr source receptionStateChanged
attr title "Radio reception state, vector"
vector 235 Scenario.node[17].wlan[0].radio transmissionState:vector ETV
attr interpolationmode sample-hold
attr source transmissionStateChanged
attr title "Radio transmission state, vector"
vector 236 Scenario.node[17].wlan[0].mac rcvdPkFromLl:vector(packetBytes) ETV
attr interpolationmode none
attr source packetReceivedFromLower
attr title "packets received from lower layer, vector(packetBytes)"
vector 237 Scenario.node[17].wlan[0].mac passedUpPk:vector(packetBytes) ETV
attr interpolationmode none
attr source packetSentToUpper
attr title "packets passed to higher layer, vector(packetBytes)"
vector 238 Scenario.node[17].ipv6.neighbourDiscovery startDad:vector ETV
attr title "DAD started, vector"
vector 239 Scenario.node[17].wlan[0].mac rcvdPkFromHl:vector(packetBytes) ETV
attr interpolationmode none
attr source packetReceivedFromUpper
attr title "packets received from higher layer, vector(packetBytes)"
vector 240 Scenario.node[17].wlan[0].mac.queue packetPushed:vector(packetBytes) ETV
attr interpolationmode none
attr title "packet pushed, vector(packetBytes)"
vector 241 Scenario.node[17].wlan[0].mac.queue queueLength:vector ETV
attr autoWarmupFilter false
attr interpolationmode sample-hold
attr source "warmup(count(packetPushed) - count(packetPulled) - count(packetRemoved) - count(packetDropped))"
attr title "queue length, vector"
attr type int
vector 242 Scenario.node[17].wlan[0].mac.queue packetPulled:vector(packetBytes) ETV
attr interpolationmode none
attr title "packet pulled, vector(packetBytes)"
vector 243 Scenario.node[17].wlan[0].mac.queue queueingTime:vector ETV
attr interpolationmode none
attr source queueingTime(packetPulled)
attr title "queueing times, vector"
attr unit s
vector 244 Scenario.node[17].wlan[0].mac sentDownPk:vector(packetBytes) ETV
attr interpolationmode none
attr source packetSentToLower
attr title "packets sent to lower layer, vector(packetBytes)"
vector 245 Scenario.node[15].wlan[0].mac rcvdPkFromLl:vector(packetBytes) ETV
attr interpolationmode none
attr source packetReceivedFromLower
attr title "packets received from lower layer, vector(packetBytes)"
vector 246 Scenario.node[15].wlan[0].mac passedUpPk:vector(packetBytes) ETV
attr interpolationmode none
attr source packetSentToUpper
attr title "packets passed to higher layer, vector(packetBytes)"
vector 247 Scenario.node[14].wlan[0].mac packetDropIncorrectlyReceived:vector(packetBytes) ETV
attr interpolationmode none
attr source packetDropReasonIsIncorrectlyReceived(packetDropped)
attr title "packet drop: incorrectly received, vector(packetBytes)"
vector 248 Scenario.node[18].wlan[0].radio radioMode:vector ETV
attr interpolationmode sample-hold
attr source radioModeChanged
attr title "Radio mode, vector"
vector 249 Scenario.node[18].wlan[0].radio receptionState:vector ETV
attr interpolationmode sample-hold
attr source receptionStateChanged
attr title "Radio reception state, vector"
vector 250 Scenario.node[18].wlan[0].radio transmissionState:vector ETV
attr interpolationmode sample-hold
attr source transmissionStateChanged
attr title "Radio transmission state, vector"
vector 251 Scenario.node[18].wlan[0].mac rcvdPkFromLl:vector(packetBytes) ETV
attr interpolationmode none
attr source packetReceivedFromLower
attr title "packets received from lower layer, vector(packetBytes)"
vector 252 Scenario.node[18].wlan[0].mac passedUpPk:vector(packetBytes) ETV
attr interpolationmode none
attr source packetSentToUpper
attr title "packets passed to higher layer, vector(packetBytes)"
vector 253 Scenario.node[18].ipv6.neighbourDiscovery startDad:vector ETV
attr title "DAD started, vector"
vector 254 Scenario.node[18].wlan[0].mac rcvdPkFromHl:vector(packetBytes) ETV
attr interpolationmode none
attr source packetReceivedFromUpper
attr title "packets received from higher layer, vector(packetBytes)"
vector 255 Scenario.node[18].wlan[0].mac.queue packetPushed:vector(packetBytes) ETV
attr interpolationmode none
attr title "packet pushed, vector(packetBytes)"
vector 256 Scenario.node[18].wlan[0].mac.queue queueLength:vector ETV
attr autoWarmupFilter false
attr interpolationmode sample-hold
attr source "warmup(count(packetPushed) - count(packetPulled) - count(packetRemoved) - count(packetDropped))"
attr title "queue length, vector"
attr type int
vector 257 Scenario.node[18].wlan[0].mac.queue packetPulled:vector(packetBytes) ETV
attr interpolationmode none
attr title "packet pulled, vector(packetBytes)"
vector 258 Scenario.node[18].wlan[0].mac.queue queueingTime:vector ETV
attr interpolationmode none
attr source queueingTime(packetPulled)
attr title "queueing times, vector"
attr unit s
vector 259 Scenario.node[18].wlan[0].mac sentDownPk:vector(packetBytes) ETV
attr interpolationmode none
attr source packetSentToLower
attr title "packets sent to lower layer, vector(packetBytes)"
vector 260 Scenario.node[19].wlan[0].radio radioMode:vector ETV
attr interpolationmode sample-hold
attr source radioModeChanged
attr title "Radio mode, vector"
vector 261 Scenario.node[19].wlan[0].radio receptionState:vector ETV
attr interpolationmode sample-hold
attr source receptionStateChanged
attr title "Radio reception state, vector"
vector 262 Scenario.node[19].wlan[0].radio transmissionState:vector ETV
attr interpolationmode sample-hold
attr source transmissionStateChanged
attr title "Radio transmission state, vector"
vector 263 Scenario.node[18].wlan[0].mac packetDropNotAddressedToUs:vector(packetBytes) ETV
attr interpolationmode none
attr source packetDropReasonIsNotAddressedToUs(packetDropped)
attr title "packet drop: not addressed to us, vector(packetBytes)"
vector 264 Scenario.node[15].wlan[0].mac packetDropNotAddressedToUs:vector(packetBytes) ETV
attr interpolationmode none
attr source packetDropReasonIsNotAddressedToUs(packetDropped)
attr title "packet drop: not addressed to us, vector(packetBytes)"
vector 265 Scenario.node[19].ipv6.neighbourDiscovery startDad:vector ETV
attr title "DAD started, vector"
vector 266 Scenario.node[19].wlan[0].mac rcvdPkFromHl:vector(packetBytes) ETV
attr interpolationmode none
attr source packetReceivedFromUpper
attr title "packets received from higher layer, vector(packetBytes)"
vector 267 Scenario.node[19].wlan[0].mac.queue packetPushed:vector(packetBytes) ETV
attr interpolationmode none
attr title "packet pushed, vector(packetBytes)"
vector 268 Scenario.node[19].wlan[0].mac.queue queueLength:vector ETV
attr autoWarmupFilter false
attr interpolationmode sample-hold
attr source "warmup(count(packetPushed) - count(packetPulled) - count(packetRemoved) - count(packetDropped))"
attr title "queue length, vector"
attr type int
vector 269 Scenario.node[19].wlan[0].mac.queue packetPulled:vector(packetBytes) ETV
attr interpolationmode none
attr title "packet pulled, vector(packetBytes)"
vector 270 Scenario.node[19].wlan[0].mac.queue queueingTime:vector ETV
attr interpolationmode none
attr source queueingTime(packetPulled)
attr title "queueing times, vector"
attr unit s
vector 271 Scenario.node[19].wlan[0].mac sentDownPk:vector(packetBytes) ETV
attr interpolationmode none
attr source packetSentToLower
attr title "packets sent to lower layer, vector(packetBytes)"
vector 272 Scenario.node[20].wlan[0].radio radioMode:vector ETV
attr interpolationmode sample-hold
attr source radioModeChanged
attr title "Radio mode, vector"
vector 273 Scenario.node[20].wlan[0].radio receptionState:vector ETV
attr interpolationmode sample-hold
attr source receptionStateChanged
attr title "Radio reception state, vector"
vector 274 Scenario.node[20].wlan[0].radio transmissionState:vector ETV
attr interpolationmode sample-hold
attr source transmissionStateChanged
attr title "Radio transmission state, vector"
vector 275 Scenario.node[20].ipv6.neighbourDiscovery startDad:vector ETV
attr title "DAD started, vector"
vector 276 Scenario.node[20].wlan[0].mac rcvdPkFromHl:vector(packetBytes) ETV
attr interpolationmode none
attr source packetReceivedFromUpper
attr title "packets received from higher layer, vector(packetBytes)"
vector 277 Scenario.node[20].wlan[0].mac.queue packetPushed:vector(packetBytes) ETV
attr interpolationmode none
attr title "packet pushed, vector(packetBytes)"
vector 278 Scenario.node[20].wlan[0].mac.queue queueLength:vector ETV
attr autoWarmupFilter false
attr interpolationmode sample-hold
attr source "warmup(count(packetPushed) - count(packetPulled) - count(packetRemoved) - count(packetDropped))"
attr title "queue length, vector"
attr type int
vector 279 Scenario.node[20].wlan[0].mac.queue packetPulled:vector(packetBytes) ETV
attr interpolationmode none
attr title "packet pulled, vector(packetBytes)"
vector 280 Scenario.node[20].wlan[0].mac.queue queueingTime:vector ETV
attr interpolationmode none
attr source queueingTime(packetPulled)
attr title "queueing times, vector"
attr unit s
vector 281 Scenario.node[20].wlan[0].mac sentDownPk:vector(packetBytes) ETV
attr interpolationmode none
attr source packetSentToLower
attr title "packets sent to lower layer, vector(packetBytes)"
vector 282 Scenario.node[20].wlan[0].mac rcvdPkFromLl:vector(packetBytes) ETV
attr interpolationmode none
attr source packetReceivedFromLower
attr title "packets received from lower layer, vector(packetBytes)"
vector 283 Scenario.node[20].wlan[0].mac passedUpPk:vector(packetBytes) ETV
attr interpolationmode none
attr source packetSentToUpper
attr title "packets passed to higher layer, vector(packetBytes)"
vector 284 Scenario.node[21].wlan[0].radio radioMode:vector ETV
attr interpolationmode sample-hold
attr source radioModeChanged
attr title "Radio mode, vector"
vector 285 Scenario.node[21].wlan[0].radio receptionState:vector ETV
attr interpolationmode sample-hold
attr source receptionStateChanged
attr title "Radio reception state, vector"
vector 286 Scenario.node[21].wlan[0].radio transmissionState:vector ETV
attr interpolationmode sample-hold
attr source transmissionStateChanged
attr title "Radio transmission state, vector"
vector 287 Scenario.node[21].wlan[0].mac rcvdPkFromLl:vector(packetBytes) ETV
attr interpolationmode none
attr source packetReceivedFromLower
attr title "packets received from lower layer, vector(packetBytes)"
vector 288 Scenario.node[21].wlan[0].mac passedUpPk:vector(packetBytes) ETV
attr interpolationmode none
attr source packetSentToUpper
attr title "packets passed to higher layer, vector(packetBytes)"
vector 289 Scenario.node[19].wlan[0].mac rcvdPkFromLl:vector(packetBytes) ETV
attr interpolationmode none
attr source packetReceivedFromLower
attr title "packets received from lower layer, vector(packetBytes)"
vector 290 Scenario.node[19].wlan[0].mac passedUpPk:vector(packetBytes) ETV
attr interpolationmode none
attr source packetSentToUpper
attr title "packets passed to higher layer, vector(packetBytes)"
vector 291 Scenario.node[21].ipv6.neighbourDiscovery startDad:vector ETV
attr title "DAD started, vector"
vector 292 Scenario.node[21].wlan[0].mac rcvdPkFromHl:vector(packetBytes) ETV
attr interpolationmode none
attr source packetReceivedFromUpper
attr title "packets received from higher layer, vector(packetBytes)"
vector 293 Scenario.node[21].wlan[0].mac.queue packetPushed:vector(packetBytes) ETV
attr interpolationmode none
attr title "packet pushed, vector(packetBytes)"
vector 294 Scenario.node[21].wlan[0].mac.queue queueLength:vector ETV
attr autoWarmupFilter false
attr interpolationmode sample-hold
attr source "warmup(count(packetPushed) - count(packetPulled) - count(packetRemoved) - count(packetDropped))"
attr title "queue length, vector"
attr type int
vector 295 Scenario.node[21].wlan[0].mac.queue packetPulled:vector(packetBytes) ETV
attr interpolationmode none
attr title "packet pulled, vector(packetBytes)"
vector 296 Scenario.node[21].wlan[0].mac.queue queueingTime:vector ETV
attr interpolationmode none
attr source queueingTime(packetPulled)
attr title "queueing times, vector"
attr unit s
vector 297 Scenario.node[21].wlan[0].mac sentDownPk:vector(packetBytes) ETV
attr interpolationmode none
attr source packetSentToLower
attr title "packets sent to lower layer, vector(packetBytes)"
vector 298 Scenario.node[22].wlan[0].radio radioMode:vector ETV
attr interpolationmode sample-hold
attr source radioModeChanged
attr title "Radio mode, vector"
vector 299 Scenario.node[22].wlan[0].radio receptionState:vector ETV
attr interpolationmode sample-hold
attr source receptionStateChanged
attr title "Radio reception state, vector"
vector 300 Scenario.node[22].wlan[0].radio transmissionState:vector ETV
attr interpolationmode sample-hold
attr source transmissionStateChanged
attr title "Radio transmission state, vector"
vector 301 Scenario.node[22].ipv6.neighbourDiscovery startDad:vector ETV
attr title "DAD started, vector"
vector 302 Scenario.node[22].wlan[0].mac rcvdPkFromHl:vector(packetBytes) ETV
attr interpolationmode none
attr source packetReceivedFromUpper
attr title "packets received from higher layer, vector(packetBytes)"
vector 303 Scenario.node[22].wlan[0].mac.queue packetPushed:vector(packetBytes) ETV
attr interpolationmode none
attr title "packet pushed, vector(packetBytes)"
vector 304 Scenario.node[22].wlan[0].mac.queue queueLength:vector ETV
attr autoWarmupFilter false
attr interpolationmode sample-hold
attr source "warmup(count(packetPushed) - count(packetPulled) - count(packetRemoved) - count(packetDropped))"
attr title "queue length, vector"
attr type int
vector 305 Scenario.node[22].wlan[0].mac.queue packetPulled:vector(packetBytes) ETV
attr interpolationmode none
attr title "packet pulled, vector(packetBytes)"
vector 306 Scenario.node[22].wlan[0].mac.queue queueingTime:vector ETV
attr interpolationmode none
attr source queueingTime(packetPulled)
attr title "queueing times, vector"
attr unit s
vector 307 Scenario.node[22].wlan[0].mac sentDownPk:vector(packetBytes) ETV
attr interpolationmode none
attr source packetSentToLower
attr title "packets sent to lower layer, vector(packetBytes)"
vector 308 Scenario.node[8].wlan[0].mac packetDropIncorrectlyReceived:vector(packetBytes) ETV
attr interpolationmode none
attr source packetDropReasonIsIncorrectlyReceived(packetDropped)
attr title "packet drop: incorrectly received, vector(packetBytes)"
vector 309 Scenario.node[13].wlan[0].mac packetDropIncorrectlyReceived:vector(packetBytes) ETV
attr interpolationmode none
attr source packetDropReasonIsIncorrectlyReceived(packetDropped)
attr title "packet drop: incorrectly received, vector(packetBytes)"
vector 310 Scenario.host[1].wlan[0].mac packetDropIncorrectlyReceived:vector(packetBytes) ETV
attr interpolationmode none
attr source packetDropReasonIsIncorrectlyReceived(packetDropped)
attr title "packet drop: incorrectly received, vector(packetBytes)"
vector 311 Scenario.node[18].wlan[0].mac packetDropIncorrectlyReceived:vector(packetBytes) ETV
attr interpolationmode none
attr source packetDropReasonIsIncorrectlyReceived(packetDropped)
attr title "packet drop: incorrectly received, vector(packetBytes)"
vector 312 Scenario.node[5].wlan[0].mac packetDropIncorrectlyReceived:vector(packetBytes) ETV
attr interpolationmode none
attr source packetDropReasonIsIncorrectlyReceived(packetDropped)
attr title "packet drop: incorrectly received, vector(packetBytes)"
vector 313 Scenario.node[23].wlan[0].radio radioMode:vector ETV
attr interpolationmode sample-hold
attr source radioModeChanged
attr title "Radio mode, vector"
vector 314 Scenario.node[23].wlan[0].radio receptionState:vector ETV
attr interpolationmode sample-hold
attr source receptionStateChanged
attr title "Radio reception state, vector"
vector 315 Scenario.node[23].wlan[0].radio transmissionState:vector ETV
attr interpolationmode sample-hold
attr source transmissionStateChanged
attr title "Radio transmission state, vector"
vector 316 Scenario.node[23].wlan[0].mac rcvdPkFromLl:vector(packetBytes) ETV
attr interpolationmode none
attr source packetReceivedFromLower
attr title "packets received from lower layer, vector(packetBytes)"
vector 317 Scenario.node[23].wlan[0].mac packetDropNotAddressedToUs:vector(packetBytes) ETV
attr interpolationmode none
attr source packetDropReasonIsNotAddressedToUs(packetDropped)
attr title "packet drop: not addressed to us, vector(packetBytes)"
vector 318 Scenario.node[21].wlan[0].mac packetDropIncorrectlyReceived:vector(packetBytes) ETV
attr interpolationmode none
attr source packetDropReasonIsIncorrectlyReceived(packetDropped)
attr title "packet drop: incorrectly received, vector(packetBytes)"
vector 319 Scenario.node[9].wlan[0].mac packetDropIncorrectlyReceived:vector(packetBytes) ETV
attr interpolationmode none
attr source packetDropReasonIsIncorrectlyReceived(packetDropped)
attr title "packet drop: incorrectly received, vector(packetBytes)"
vector 320 Scenario.node[23].ipv6.neighbourDiscovery startDad:vector ETV
attr title "DAD started, vector"
vector 321 Scenario.node[23].wlan[0].mac rcvdPkFromHl:vector(packetBytes) ETV
attr interpolationmode none
attr source packetReceivedFromUpper
attr title "packets received from higher layer, vector(packetBytes)"
vector 322 Scenario.node[23].wlan[0].mac.queue packetPushed:vector(packetBytes) ETV
attr interpolationmode none
attr title "packet pushed, vector(packetBytes)"
vector 323 Scenario.node[23].wlan[0].mac.queue queueLength:vector ETV
attr autoWarmupFilter false
attr interpolationmode sample-hold
attr source "warmup(count(packetPushed) - count(packetPulled) - count(packetRemoved) - count(packetDropped))"
attr title "queue length, vector"
attr type int
vector 324 Scenario.node[23].wlan[0].mac.queue packetPulled:vector(packetBytes) ETV
attr interpolationmode none
attr title "packet pulled, vector(packetBytes)"
vector 325 Scenario.node[23].wlan[0].mac.queue queueingTime:vector ETV
attr interpolationmode none
attr source queueingTime(packetPulled)
attr title "queueing times, vector"
attr unit s
vector 326 Scenario.node[23].wlan[0].mac sentDownPk:vector(packetBytes) ETV
attr interpolationmode none
attr source packetSentToLower
attr title "packets sent to lower layer, vector(packetBytes)"
vector 327 Scenario.node[23].wlan[0].mac passedUpPk:vector(packetBytes) ETV
attr interpolationmode none
attr source packetSentToUpper
attr title "packets passed to higher layer, vector(packetBytes)"
vector 328 Scenario.node[24].wlan[0].radio radioMode:vector ETV
attr interpolationmode sample-hold
attr source radioModeChanged
attr title "Radio mode, vector"
vector 329 Scenario.node[24].wlan[0].radio receptionState:vector ETV
attr interpolationmode sample-hold
attr source receptionStateChanged
attr title "Radio reception state, vector"
vector 330 Scenario.node[24].wlan[0].radio transmissionState:vector ETV
attr interpolationmode sample-hold
attr source transmissionStateChanged
attr title "Radio transmission state, vector"
vector 331 Scenario.node[24].ipv6.neighbourDiscovery startDad:vector ETV
attr title "DAD started, vector"
vector 332 Scenario.node[24].wlan[0].mac rcvdPkFromHl:vector(packetBytes) ETV
attr interpolationmode none
attr source packetReceivedFromUpper
attr title "packets received from higher layer, vector(packetBytes)"
vector 333 Scenario.node[24].wlan[0].mac.queue packetPushed:vector(packetBytes) ETV
attr interpolationmode none
attr title "packet pushed, vector(packetBytes)"
vector 334 Scenario.node[24].wlan[0].mac.queue queueLength:vector ETV
attr autoWarmupFilter false
attr interpolationmode sample-hold
attr source "warmup(count(packetPushed) - count(packetPulled) - count(packetRemoved) - count(packetDropped))"
attr title "queue length, vector"
attr type int
vector 335 Scenario.node[24].wlan[0].mac.queue packetPulled:vector(packetBytes) ETV
attr interpolationmode none
attr title "packet pulled, vector(packetBytes)"
vector 336 Scenario.node[24].wlan[0].mac.queue queueingTime:vector ETV
attr interpolationmode none
attr source queueingTime(packetPulled)
attr title "queueing times, vector"
attr unit s
vector 337 Scenario.node[24].wlan[0].mac sentDownPk:vector(packetBytes) ETV
attr interpolationmode none
attr source packetSentToLower
attr title "packets sent to lower layer, vector(packetBytes)"
vector 338 Scenario.node[22].wlan[0].mac rcvdPkFromLl:vector(packetBytes) ETV
attr interpolationmode none
attr source packetReceivedFromLower
attr title "packets received from lower layer, vector(packetBytes)"
vector 339 Scenario.node[22].wlan[0].mac passedUpPk:vector(packetBytes) ETV
attr interpolationmode none
attr source packetSentToUpper
attr title "packets passed to higher layer, vector(packetBytes)"
vector 340 Scenario.node[25].wlan[0].radio radioMode:vector ETV
attr interpolationmode sample-hold
attr source radioModeChanged
attr title "Radio mode, vector"
vector 341 Scenario.node[25].wlan[0].radio receptionState:vector ETV
attr interpolationmode sample-hold
attr source receptionStateChanged
attr title "Radio reception state, vector"
vector 342 Scenario.node[25].wlan[0].radio transmissionState:vector ETV
attr interpolationmode sample-hold
attr source transmissionStateChanged
attr title "Radio transmission state, vector"
vector 343 Scenario.node[24].wlan[0].mac rcvdPkFromLl:vector(packetBytes) ETV
attr interpolationmode none
attr source packetReceivedFromLower
attr title "packets received from lower layer, vector(packetBytes)"
vector 344 Scenario.node[24].wlan[0].mac packetDropNotAddressedToUs:vector(packetBytes) ETV
attr interpolationmode none
attr source packetDropReasonIsNotAddressedToUs(packetDropped)
attr title "packet drop: not addressed to us, vector(packetBytes)"
vector 345 Scenario.node[0].wlan[0].mac packetDropIncorrectlyReceived:vector(packetBytes) ETV
attr interpolationmode none
attr source packetDropReasonIsIncorrectlyReceived(packetDropped)
attr title "packet drop: incorrectly received, vector(packetBytes)"
vector 346 Scenario.node[24].wlan[0].mac passedUpPk:vector(packetBytes) ETV
attr interpolationmode none
attr source packetSentToUpper
attr title "packets passed to higher layer, vector(packetBytes)"
vector 347 Scenario.node[0].wlan[0].mac packetDropNotAddressedToUs:vector(packetBytes) ETV
attr interpolationmode none
attr source packetDropReasonIsNotAddressedToUs(packetDropped)
attr title "packet drop: not addressed to us, vector(packetBytes)"
vector 348 Scenario.node[9].wlan[0].mac packetDropNotAddressedToUs:vector(packetBytes) ETV
attr interpolationmode none
attr source packetDropReasonIsNotAddressedToUs(packetDropped)
attr title "packet drop: not addressed to us, vector(packetBytes)"
vector 349 Scenario.node[25].wlan[0].mac rcvdPkFromLl:vector(packetBytes) ETV
attr interpolationmode none
attr source packetReceivedFromLower
attr title "packets received from lower layer, vector(packetBytes)"
vector 350 Scenario.node[25].wlan[0].mac passedUpPk:vector(packetBytes) ETV
attr interpolationmode none
attr source packetSentToUpper
attr title "packets passed to higher layer, vector(packetBytes)"
vector 351 Scenario.node[25].ipv6.neighbourDiscovery startDad:vector ETV
attr title "DAD started, vector"
vector 352 Scenario.node[25].wlan[0].mac rcvdPkFromHl:vector(packetBytes) ETV
attr interpolationmode none
attr source packetReceivedFromUpper
attr title "packets received from higher layer, vector(packetBytes)"
vector 353 Scenario.node[25].wlan[0].mac.queue packetPushed:vector(packetBytes) ETV
attr interpolationmode none
attr title "packet pushed, vector(packetBytes)"
vector 354 Scenario.node[25].wlan[0].mac.queue queueLength:vector ETV
attr autoWarmupFilter false
attr interpolationmode sample-hold
attr source "warmup(count(packetPushed) - count(packetPulled) - count(packetRemoved) - count(packetDropped))"
attr title "queue length, vector"
attr type int
vector 355 Scenario.node[25].wlan[0].mac.queue packetPulled:vector(packetBytes) ETV
attr interpolationmode none
attr title "packet pulled, vector(packetBytes)"
vector 356 Scenario.node[25].wlan[0].mac.queue queueingTime:vector ETV
attr interpolationmode none
attr source queueingTime(packetPulled)
attr title "queueing times, vector"
attr unit s
vector 357 Scenario.node[25].wlan[0].mac sentDownPk:vector(packetBytes) ETV
attr interpolationmode none
attr source packetSentToLower
attr title "packets sent to lower layer, vector(packetBytes)"
vector 358 Scenario.node[26].wlan[0].radio radioMode:vector ETV
attr interpolationmode sample-hold
attr source radioModeChanged
attr title "Radio mode, vector"
vector 359 Scenario.node[26].wlan[0].radio receptionState:vector ETV
attr interpolationmode sample-hold
attr source receptionStateChanged
attr title "Radio reception state, vector"
vector 360 Scenario.node[26].wlan[0].radio transmissionState:vector ETV
attr interpolationmode sample-hold
attr source transmissionStateChanged
attr title "Radio transmission state, vector"
vector 361 Scenario.node[26].wlan[0].mac rcvdPkFromLl:vector(packetBytes) ETV
attr interpolationmode none
attr source packetReceivedFromLower
attr title "packets received from lower layer, vector(packetBytes)"
vector 362 Scenario.node[26].wlan[0].mac passedUpPk:vector(packetBytes) ETV
attr interpolationmode none
attr source packetSentToUpper
attr title "packets passed to higher layer, vector(packetBytes)"
vector 363 Scenario.node[26].ipv6.neighbourDiscovery startDad:vector ETV
attr title "DAD started, vector"
vector 364 Scenario.node[26].wlan[0].mac rcvdPkFromHl:vector(packetBytes) ETV
attr interpolationmode none
attr source packetReceivedFromUpper
attr title "packets received from higher layer, vector(packetBytes)"
vector 365 Scenario.node[26].wlan[0].mac.queue packetPushed:vector(packetBytes) ETV
attr interpolationmode none
attr title "packet pushed, vector(packetBytes)"
vector 366 Scenario.node[26].wlan[0].mac.queue queueLength:vector ETV
attr autoWarmupFilter false
attr interpolationmode sample-hold
attr source "warmup(count(packetPushed) - count(packetPulled) - count(packetRemoved) - count(packetDropped))"
attr title "queue length, vector"
attr type int
vector 367 Scenario.node[26].wlan[0].mac.queue packetPulled:vector(packetBytes) ETV
attr interpolationmode none
attr title "packet pulled, vector(packetBytes)"
vector 368 Scenario.node[26].wlan[0].mac.queue queueingTime:vector ETV
attr interpolationmode none
attr source queueingTime(packetPulled)
attr title "queueing times, vector"
attr unit s
vector 369 Scenario.node[26].wlan[0].mac sentDownPk:vector(packetBytes) ETV
attr interpolationmode none
attr source packetSentToLower
attr title "packets sent to lower layer, vector(packetBytes)"
0	0	0	0
0	0	0	0
0	0	0	4
1	0	0	0
1	0	0	0
1	0	0	4
2	0	0	1
2	8	0.615314705127	3
2	13	0.615710705127	1
2	22	0.726930214893	3
2	27	0.727326214893	1
2	70	1.423655105251	3
2	78	1.424099105251	1
2	130	1.937587409756	3
2	139	1.938079409756	1
2	153	1.983885376212	3
2	160	1.984249376212	1
2	196	2.00042841112	3
2	207	2.00085641112	1
2	234	2.00147682224	3
2	249	2.00190482224	1
2	253	2.001905068834	3
2	269	2.002397068834	1
2	272	2.002397109622	3
2	287	2.003017109622	1
2	290	2.003017356216	3
2	304	2.003637356216	1
2	306	2.003637397004	3
2	316	2.004257397004	1
2	402	2.759053994073	3
2	411	2.759417994073	1
2	465	3.000620443858	3
2	480	3.001240443858	1
2	483	3.001240660182	3
2	497	3.001860660182	1
2	499	3.001860703438	3
2	509	3.002480703438	1
2	526	3.235823831716	3
2	536	3.236267831716	1
2	549	3.274983593537	3
2	559	3.275475593537	1
2	690	4.000620496328	3
2	708	4.001240496328	1
2	710	4.001240677091	3
2	726	4.001860677091	1
2	728	4.001860737256	3
2	740	4.002480737256	1
2	830	4.748591673533	3
2	841	4.749083673533	1
2	928	5.000620554758	3
2	948	5.001240554758	1
2	950	5.001240689667	3
2	968	5.001860689667	1
2	970	5.001860762408	3
2	984	5.002480762408	1
2	1045	5.214442174611	3
2	1057	5.214886174611	1
2	1129	5.891944991558	3
2	1141	5.892436991558	1
2	1157	5.983885470864	3
2	1167	5.984249470864	1
2	1209	6.000620625932	3
2	1229	6.001240625932	1
2	1231	6.001240715385	3
2	1249	6.001860715385	1
2	1251	6.001860813844	3
2	1265	6.002480813844	1
2	1356	6.400774519154	3
2	1368	6.401218519154	1
2	1466	6.759053994073	3
2	1477	6.759417994073	1
2	1543	7.000620709312	3
2	1565	7.001240709312	1
2	1567	7.001240763295	3
2	1587	7.001860763295	1
2	1589	7.001860909664	3
2	1605	7.002480909664	1
2	1621	7.003017356216	3
2	1637	7.003477356216	1
2	1640	7.003477502585	3
2	1663	7.003905502585	2
2	1664	7.003905502585	3
2	1683	7.004301502585	1
2	1732	7.108495408491	3
2	1745	7.108987408491	1
2	1836	7.419564317175	3
2	1849	7.420008317175	1
2	2060	8.000620805568	3
2	2085	8.001240805568	1
2	2087	8.001240837725	3
2	2111	8.001860837725	1
2	2113	8.001861058524	3
2	2133	8.002481058524	1
2	2415	8.779072219235	3
2	2431	8.779516219235	1
2	2523	9.000620906548	3
2	2549	9.001240906548	1
2	2551	9.001240927328	3
2	2576	9.001860927328	1
2	2579	9.00186123773	3
2	2601	9.00248123773	1
2	2660	9.052243582391	3
2	2676	9.052735582391	1
2	3011	9.983885655015	3
2	3026	9.984249655015	1
2	3091	10.000621007874	3
2	3121	10.001241007874	1
2	3123	10.001241022505	3
2	3152	10.001861022505	1
2	3156	10.001861428084	3
2	3181	10.002481428084	1
2	3559	10.705033977369	3
2	3577	10.705525977369	1
2	3599	10.759053994073	3
2	3616	10.759417994073	1
2	3635	10.767446051081	3
2	3653	10.767890051081	1
2	3923	11.00062110937	3
2	3954	11.00124110937	1
2	3956	11.001241120326	3
2	3987	11.001861120326	1
2	3992	11.001861623726	3
2	4018	11.002481623726	1
2	4683	12.000621211364	3
2	4714	12.001241211364	1
2	4717	12.001241219934	3
2	4750	12.001861219934	1
2	4756	12.001861822942	3
2	4783	12.002481822942	1
2	4913	12.367560921792	3
2	4933	12.368052921792	1
2	5138	12.588439281992	3
2	5154	12.588883281992	1
2	5632	13.000621313512	3
2	5663	13.001241313512	1
2	5665	13.001241320443	3
2	5696	13.001861320443	1
2	5709	13.00186202396	3
2	5736	13.00248202396	1
2	5763	13.028182681188	3
2	5780	13.028578681188	1
2	6502	14.002702270364	3
2	6521	14.003146270364	1
2	7438	14.921158128425	3
2	7461	14.921650128425	1
2	7564	15.00042901841	3
2	7602	15.00085701841	1
2	8053	15.360235847607	3
2	8076	15.360599847607	1
2	8268	15.555523754526	3
2	8289	15.555967754526	1
2	8537	15.793571724644	3
2	8558	15.793967724644	1
2	8670	16.000620980266	3
2	8757	16.001432980266	1
2	8766	16.001433470399	3
2	8811	16.001861470399	1
2	9682	16.671725664483	3
2	9705	16.672169664483	1
2	9930	16.817196479503	3
2	9953	16.817688479503	1
2	10262	17.00062092896	3
2	10301	17.00143292896	1
2	10519	17.199479714544	3
2	10543	17.199971714544	1
2	11226	17.69091886511	3
2	11251	17.69136286511	1
2	11882	18.00042884234	3
2	11924	18.00085684234	1
2	11971	18.000857494647	3
2	12087	18.001285494647	1
2	12196	18.059883538497	3
2	12221	18.060247538497	1
2	13024	18.497762026478	3
2	13049	18.498254026478	1
2	13225	18.533270948019	3
2	13250	18.533762948019	1
2	13860	19.000620798872	3
2	13963	19.001048798872	1
2	14064	19.037146570847	3
2	14094	19.037542570847	1
2	14124	19.122337299594	3
2	14150	19.122781299594	1
2	14468	19.360235731334	3
2	14497	19.360599731334	1
2	14992	19.6360634237	3
2	15025	19.6364594237	1
2	15433	19.967011163433	3
2	15460	19.967503163433	1
2	15742	20.000620771537	3
2	15854	20.001048771537	1
2	15922	20.001285969975	3
2	15985	20.001713969975	1
2	16020	20.001714487353	3
2	16121	20.002142487353	1
2	16393	20.102143125071	3
2	16534	20.102571125071	1
2	17040	20.37441101245	3
2	17071	20.37490301245	1
2	18140	20.779051595297	3
2	18178	20.779543595297	1
3	0	0	1
3	34	0.91476737191	2
3	37	0.91516337191	1
3	106	1.847251737257	2
3	111	1.847695737257	1
3	178	2	2
3	184	2.000428	1
3	214	2.00085641112	2
3	223	2.00147641112	1
3	335	2.058609644604	2
3	341	2.058973644604	1
3	450	3	2
3	456	3.00062	1
3	599	3.683330506086	2
3	606	3.683774506086	1
3	674	4	2
3	681	4.00062	1
3	875	4.801604929845	2
3	882	4.802048929845	1
3	911	5	2
3	919	5.00062	1
3	1192	6	2
3	1200	6.00062	1
3	1282	6.058609644604	2
3	1290	6.058973644604	1
3	1437	6.74627384846	2
3	1445	6.74671784846	1
3	1525	7	2
3	1534	7.00062	1
3	1690	7.004301502585	2
3	1705	7.004793502585	1
3	1991	7.895948712247	2
3	2001	7.896392712247	1
3	2039	8	2
3	2050	8.00062	1
3	2500	9	2
3	2512	9.00062	1
3	2836	9.562715423525	2
3	2849	9.563159423525	1
3	3066	10	2
3	3080	10.00062	1
3	3204	10.058609644604	2
3	3218	10.058973644604	1
3	3896	11	2
3	3911	11.00062	1
3	4042	11.029026196337	2
3	4057	11.029470196337	1
3	4654	12	2
3	4670	12.00062	1
3	5403	12.907219664891	2
3	5419	12.907663664891	1
3	5599	13	2
3	5616	13.00062	1
3	6458	14	2
3	6477	14.00062	1
3	6980	14.473821113351	2
3	6999	14.474265113351	1
3	7526	15	2
3	7546	15.000428	1
3	7609	15.00085701841	2
3	7686	15.00147701841	1
3	8630	16	2
3	8652	16.00062	1
3	8940	16.043439517728	2
3	8962	16.043883517728	1
3	10222	17	2
3	10246	17.00062	1
3	11085	17.631904601118	2
3	11110	17.632348601118	1
3	11839	18	2
3	11864	18.000428	1
3	11931	18.00085684234	2
3	12161	18.00147684234	1
3	13818	19	2
3	13844	19.00062	1
3	14395	19.28400787548	2
3	14421	19.28445187548	1
3	15697	20	2
3	15725	20.00062	1
3	18213	20.853108619804	2
3	18242	20.853552619804	1
4	0	0	1
4	7	0.61531466721	3
4	10	0.61571066721	1
4	36	0.914767680373	3
4	42	0.915163680373	1
4	108	1.84725204572	3
4	117	1.84769604572	1
4	129	1.9375873588	3
4	134	1.9380793588	1
4	152	1.983885325256	3
4	157	1.984249325256	1
4	180	2.000000308463	3
4	192	2.000428308463	1
4	195	2.000428349251	3
4	204	2.000856349251	1
4	216	2.000856719583	3
4	231	2.001476719583	1
[...]
252	17081	20.374903206355	88
252	18253	20.853552976017	76
253	8533	15.793571277172	1
254	8535	15.793571277172	64
254	10517	17.199479277479	88
254	11873	18.00042842117	72
254	12194	18.059883117327	56
254	13022	18.497761605308	88
254	13854	19.000620399436	72
254	15431	19.967010776979	88
254	15736	20.000620399436	72
254	15906	20.001285597874	72
254	16377	20.10214275297	72
255	8535	15.793571277172	64
255	10517	17.199479277479	88
255	11873	18.00042842117	72
255	12194	18.059883117327	56
255	13022	18.497761605308	88
255	13854	19.000620399436	72
255	15431	19.967010776979	88
255	15736	20.000620399436	72
255	15906	20.001285597874	72
255	16377	20.10214275297	72
256	8535	15.793571277172	1
256	8535	15.793571277172	0
256	10517	17.199479277479	1
256	10517	17.199479277479	0
256	11873	18.00042842117	1
256	11873	18.00042842117	0
256	12194	18.059883117327	1
256	12194	18.059883117327	0
256	13022	18.497761605308	1
256	13022	18.497761605308	0
256	13854	19.000620399436	1
256	13854	19.000620399436	0
256	15431	19.967010776979	1
256	15431	19.967010776979	0
256	15736	20.000620399436	1
256	15736	20.000620399436	0
256	15906	20.001285597874	1
256	15906	20.001285597874	0
256	16377	20.10214275297	1
256	16377	20.10214275297	0
257	8535	15.793571277172	64
257	10517	17.199479277479	88
257	11873	18.00042842117	72
257	12194	18.059883117327	56
257	13022	18.497761605308	88
257	13854	19.000620399436	72
257	15431	19.967010776979	88
257	15736	20.000620399436	72
257	15906	20.001285597874	72
257	16377	20.10214275297	72
258	8535	15.793571277172	0
258	10517	17.199479277479	0
258	11873	18.00042842117	0
258	12194	18.059883117327	0
258	13022	18.497761605308	0
258	13854	19.000620399436	0
258	15431	19.967010776979	0
258	15736	20.000620399436	0
258	15906	20.001285597874	0
258	16377	20.10214275297	0
259	8535	15.793571277172	87
259	10517	17.199479277479	111
259	11873	18.00042842117	95
259	12194	18.059883117327	79
259	13022	18.497761605308	111
259	13854	19.000620399436	95
259	15431	19.967010776979	111
259	15736	20.000620399436	95
259	15906	20.001285597874	95
259	16377	20.10214275297	95
260	8627	16	0
260	8627	16	0
260	8627	16	4
261	8627	16	1
261	10457	17.159454649627	3
261	10487	17.159946649627	1
261	12675	18.262318036076	3
261	12709	18.262810036076	1
261	14536	19.362544944446	3
261	14571	19.363036944446	1
262	8627	16	1
262	9225	16.264520607865	2
262	9247	16.264916607865	1
262	11676	17.938990762434	2
262	11701	17.939354762434	1
262	11733	17.96541621862	2
262	11758	17.96590821862	1
262	14732	19.401281137951	2
262	14758	19.401773137951	1
262	17315	20.470448128181	2
262	17343	20.470940128181	1
263	8656	16.000620446789	143
263	10250	17.000620437065	143
263	16532	20.102571109485	95
264	8756	16.001432962073	191
264	10307	17.001432962701	191
264	12098	18.001285595877	95
265	9222	16.264520607865	1
266	9224	16.264520607865	64
266	11675	17.938990762434	56
266	11732	17.96541621862	88
266	14731	19.401281137951	88
266	17314	20.470448128181	88
267	9224	16.264520607865	64
267	11675	17.938990762434	56
267	11732	17.96541621862	88
267	14731	19.401281137951	88
267	17314	20.470448128181	88
268	9224	16.264520607865	1
268	9224	16.264520607865	0
268	11675	17.938990762434	1
268	11675	17.938990762434	0
268	11732	17.96541621862	1
268	11732	17.96541621862	0
268	14731	19.401281137951	1
268	14731	19.401281137951	0
268	17314	20.470448128181	1
268	17314	20.470448128181	0
269	9224	16.264520607865	64
269	11675	17.938990762434	56
269	11732	17.96541621862	88
269	14731	19.401281137951	88
269	17314	20.470448128181	88
270	9224	16.264520607865	0
270	11675	17.938990762434	0
270	11732	17.96541621862	0
270	14731	19.401281137951	0
270	17314	20.470448128181	0
271	9224	16.264520607865	87
271	11675	17.938990762434	79
271	11732	17.96541621862	111
271	14731	19.401281137951	111
271	17314	20.470448128181	111
272	9618	16.5	0
272	9618	16.5	0
272	9618	16.5	4
273	9618	16.5	1
273	9863	16.790779153034	3
273	9898	16.791271153034	1
273	10057	16.878140982846	3
273	10080	16.878632982846	1
273	10654	17.235840084697	3
273	10693	17.236332084697	1
273	10855	17.403789473199	3
273	10894	17.404153473199	1
273	11156	17.633507954458	3
273	11199	17.633999954458	1
273	12268	18.092353989728	3
273	12308	18.092845989728	1
273	12539	18.166131965834	3
273	12564	18.166623965834	1
273	12812	18.352424858628	3
273	12855	18.352916858628	1
273	13149	18.529446736979	3
273	13195	18.529938736979	1
273	13430	18.805804965968	3
273	13470	18.806296965968	1
273	13631	18.954505208533	3
273	13674	18.954997208533	1
273	14850	19.519336848772	3
273	14898	19.519700848772	1
273	15132	19.70473649124	3
273	15180	19.70522849124	1
273	15275	19.870020540895	3
273	15302	19.870512540895	1
273	16236	20.076396190767	3
273	16282	20.076888190767	1
273	16649	20.116998136395	3
273	16698	20.117490136395	1
273	16878	20.218997214296	3
273	16906	20.219393214296	1
273	16959	20.270725007941	3
273	17008	20.271089007941	1
273	17591	20.528293646574	3
273	17644	20.528785646574	1
273	17685	20.641539367642	3
273	17726	20.642031367642	1
273	17767	20.710452659121	3
273	17820	20.710944659121	1
273	17927	20.738109890812	3
273	17972	20.738505890812	1
273	18296	20.886648519808	3
273	18325	20.887140519808	1
274	9618	16.5	1
274	9742	16.685642568301	2
274	9765	16.686038568301	1
274	12397	18.106393216876	2
274	12491	18.106885216876	1
274	13289	18.692797274003	2
274	13314	18.693161274003	1
274	15353	19.912587208673	2
274	15380	19.913079208673	1
275	9739	16.685642568301	1
276	9741	16.685642568301	64
276	12396	18.106393216876	88
276	13288	18.692797274003	56
276	15352	19.912587208673	88
277	9741	16.685642568301	64
277	12396	18.106393216876	88
277	13288	18.692797274003	56
277	15352	19.912587208673	88
278	9741	16.685642568301	1
278	9741	16.685642568301	0
278	12396	18.106393216876	1
278	12396	18.106393216876	0
278	13288	18.692797274003	1
278	13288	18.692797274003	0
278	15352	19.912587208673	1
278	15352	19.912587208673	0
279	9741	16.685642568301	64
279	12396	18.106393216876	88
279	13288	18.692797274003	56
279	15352	19.912587208673	88
280	9741	16.685642568301	0
280	12396	18.106393216876	0
280	13288	18.692797274003	0
280	15352	19.912587208673	0
281	9741	16.685642568301	87
281	12396	18.106393216876	111
281	13288	18.692797274003	79
281	15352	19.912587208673	111
282	9899	16.791271153034	111
282	10081	16.878632982846	111
282	10694	17.236332084697	111
282	10895	17.404153473199	79
282	11200	17.633999954458	111
282	12309	18.092845989728	111
282	12565	18.166623965834	111
282	12856	18.352916858628	111
282	13196	18.529938736979	111
282	13471	18.806296965968	111
282	13675	18.954997208533	111
282	14899	19.519700848772	79
282	15181	19.70522849124	111
282	15303	19.870512540895	111
282	16283	20.076888190767	111
282	16699	20.117490136395	111
282	16907	20.219393214296	87
282	17009	20.271089007941	79
282	17645	20.528785646574	111
282	17727	20.642031367642	111
282	17821	20.710944659121	111
282	17973	20.738505890812	87
282	18326	20.887140519808	111
283	9899	16.791271153034	88
283	10081	16.878632982846	88
283	10694	17.236332084697	88
283	10895	17.404153473199	56
283	11200	17.633999954458	88
283	12309	18.092845989728	88
283	12565	18.166623965834	88
283	12856	18.352916858628	88
283	13196	18.529938736979	88
283	13471	18.806296965968	88
283	13675	18.954997208533	88
283	14899	19.519700848772	56
283	15181	19.70522849124	88
283	15303	19.870512540895	88
283	16283	20.076888190767	88
283	16699	20.117490136395	88
283	16907	20.219393214296	64
283	17009	20.271089007941	56
283	17645	20.528785646574	88
283	17727	20.642031367642	88
283	17821	20.710944659121	88
283	17973	20.738505890812	64
283	18326	20.887140519808	88
284	10219	17	0
284	10219	17	0
284	10219	17	4
285	10219	17	1
285	10393	17.112716763965	3
285	10417	17.113208763965	1
285	10522	17.199479878416	3
285	10557	17.199971878416	1
285	11229	17.690919193409	3
285	11265	17.691363193409	1
285	11411	17.712799322485	3
285	11439	17.713163322485	1
285	11477	17.862580731298	3
285	11505	17.863072731298	1
285	11612	17.891964726086	3
285	11640	17.892328726086	1
285	11889	18.000429020326	3
285	11943	18.000857020326	1
285	11968	18.000857463106	3
285	12081	18.001285463106	1
285	12199	18.059883716483	3
285	12231	18.060247716483	1
285	12343	18.106011289859	3
285	12427	18.106503289859	1
285	12608	18.248190807873	3
285	12633	18.248682807873	1
285	12738	18.276398945949	3
285	12763	18.276890945949	1
285	12885	18.404724856467	3
285	12910	18.405088856467	1
285	13027	18.497762204464	3
285	13063	18.498254204464	1
285	13866	19.00062098987	3
285	13968	19.00104898987	2
285	14004	19.001285429939	1
285	14127	19.122337618063	3
285	14164	19.122781618063	1
285	14254	19.230142669886	3
285	14286	19.230634669886	1
285	14663	19.375967994137	3
285	14689	19.376459994137	1
285	15055	19.696116933991	3
285	15082	19.696608933991	1
285	15436	19.967011361397	3
285	15474	19.967503361397	1
285	15576	19.997934600964	3
285	15606	19.998426600964	1
285	15751	20.000620976984	3
285	15862	20.001048976984	2
285	15896	20.001285404716	1
285	15933	20.001286175422	3
285	15999	20.001714175422	1
285	16022	20.001714531937	3
285	16124	20.002142531937	1
285	16360	20.102142538716	3
285	16510	20.102570538716	2
285	16549	20.102571330518	1
285	17184	20.409190353976	3
285	17212	20.409682353976	1
286	10219	17	1
286	10584	17.224750950816	2
286	10608	17.225146950816	1
286	11950	18.000857020326	2
286	12072	18.001285020326	1
286	12950	18.428768698592	2
286	12975	18.429260698592	1
286	13911	19.000857020326	2
286	13996	19.001285020326	1
286	14321	19.236607450409	2
286	14347	19.236971450409	1
286	15798	20.000857020326	2
286	15889	20.001285020326	1
286	16005	20.001714175422	2
286	16187	20.002334175422	1
286	16317	20.101714175422	2
286	16345	20.102142175422	1
286	16725	20.143009996973	2
286	16753	20.143501996973	1
287	10418	17.113208763965	111
287	10558	17.199971878416	111
287	11266	17.691363193409	99
287	11440	17.713163322485	79
287	11506	17.863072731298	111
287	11641	17.892328726086	79
287	11944	18.000857020326	95
287	12082	18.001285463106	95
287	12232	18.060247716483	79
287	12428	18.106503289859	111
287	12634	18.248682807873	111
287	12764	18.276890945949	111
287	12911	18.405088856467	79
287	13064	18.498254204464	111
287	13969	19.00104898987	95
287	14165	19.122781618063	99
287	14287	19.230634669886	111
287	14690	19.376459994137	111
287	15083	19.696608933991	111
287	15475	19.967503361397	111
287	15607	19.998426600964	111
287	15863	20.001048976984	95
287	16000	20.001714175422	95
287	16125	20.002142531937	95
287	16511	20.102570538716	95
287	17213	20.409682353976	111
288	10418	17.113208763965	88
288	10558	17.199971878416	88
288	11266	17.691363193409	76
288	11440	17.713163322485	56
288	11506	17.863072731298	88
288	11641	17.892328726086	56
288	11944	18.000857020326	72
288	12082	18.001285463106	72
288	12232	18.060247716483	56
288	12428	18.106503289859	88
288	12634	18.248682807873	88
288	12764	18.276890945949	88
288	12911	18.405088856467	56
288	13064	18.498254204464	88
288	14165	19.122781618063	76
288	14287	19.230634669886	88
288	14690	19.376459994137	88
288	15083	19.696608933991	88
288	15475	19.967503361397	88
288	15607	19.998426600964	88
288	16000	20.001714175422	72
288	16125	20.002142531937	72
288	17213	20.409682353976	88
289	10488	17.159946649627	111
289	12710	18.262810036076	111
289	14572	19.363036944446	111
290	10488	17.159946649627	88
290	12710	18.262810036076	88
290	14572	19.363036944446	88
291	10581	17.224750950816	1
292	10583	17.224750950816	64
292	11949	18.000857020326	72
292	12949	18.428768698592	88
292	13910	19.000857020326	72
292	14320	19.236607450409	56
292	15797	20.000857020326	72
292	16004	20.001714175422	120
292	16129	20.002142531937	72
292	16724	20.143009996973	88
293	10583	17.224750950816	64
293	11949	18.000857020326	72
293	12949	18.428768698592	88
293	13910	19.000857020326	72
293	14320	19.236607450409	56
293	15797	20.000857020326	72
293	16004	20.001714175422	120
293	16129	20.002142531937	72
293	16724	20.143009996973	88
294	10583	17.224750950816	1
294	10583	17.224750950816	0
294	11949	18.000857020326	1
294	11949	18.000857020326	0
294	12949	18.428768698592	1
294	12949	18.428768698592	0
294	13910	19.000857020326	1
294	13910	19.000857020326	0
294	14320	19.236607450409	1
294	14320	19.236607450409	0
294	15797	20.000857020326	1
294	15797	20.000857020326	0
294	16004	20.001714175422	1
294	16004	20.001714175422	0
294	16129	20.002142531937	1
294	16316	20.101714175422	0
294	16724	20.143009996973	1
294	16724	20.143009996973	0
295	10583	17.224750950816	64
295	11949	18.000857020326	72
295	12949	18.428768698592	88
295	13910	19.000857020326	72
295	14320	19.236607450409	56
295	15797	20.000857020326	72
295	16004	20.001714175422	120
295	16316	20.101714175422	72
295	16724	20.143009996973	88
296	10583	17.224750950816	0
296	11949	18.000857020326	0
296	12949	18.428768698592	0
296	13910	19.000857020326	0
296	14320	19.236607450409	0
296	15797	20.000857020326	0
296	16004	20.001714175422	0
296	16316	20.101714175422	0.099571643485
296	16724	20.143009996973	0
297	10583	17.224750950816	87
297	11949	18.000857020326	95
297	12949	18.428768698592	111
297	13910	19.000857020326	95
297	14320	19.236607450409	79
297	15797	20.000857020326	95
297	16004	20.001714175422	143
297	16316	20.101714175422	95
297	16724	20.143009996973	111
298	10967	17.5	0
298	10967	17.5	0
298	10967	17.5	4
299	10967	17.5	1
299	14991	19.636063245816	3
299	15022	19.636459245816	1
300	10967	17.5	1
300	10971	17.510087528126	2
300	10996	17.510483528126	1
300	14195	19.153200815432	2
300	14221	19.153692815432	1
300	17253	20.46162425084	2
300	17281	20.46198825084	1
301	10968	17.510087528126	1
302	10970	17.510087528126	64
302	14194	19.153200815432	88
302	17252	20.46162425084	56
303	10970	17.510087528126	64
303	14194	19.153200815432	88
303	17252	20.46162425084	56
304	10970	17.510087528126	1
304	10970	17.510087528126	0
304	14194	19.153200815432	1
304	14194	19.153200815432	0
304	17252	20.46162425084	1
304	17252	20.46162425084	0
305	10970	17.510087528126	64
305	14194	19.153200815432	88
305	17252	20.46162425084	56
306	10970	17.510087528126	0
306	14194	19.153200815432	0
306	17252	20.46162425084	0
307	10970	17.510087528126	87
307	14194	19.153200815432	111
307	17252	20.46162425084	79
308	12075	18.001285265148	95
308	13998	19.001285228515	95
308	15891	20.001285201973	95
308	16189	20.002334357069	143
308	16517	20.102570746903	95
309	12077	18.001285337426	95
309	14000	19.001285319997	95
310	12163	18.001477150803	143
310	13967	19.00104882486	95
310	15858	20.001048798622	95
310	16137	20.002142754697	95
310	16526	20.102570958944	95
311	12165	18.00147726351	143
311	14011	19.00128561076	95
311	16135	20.002142681258	95
312	12432	18.106503404911	111
313	13815	19	0
313	13815	19	0
313	13815	19	4
314	13815	19	1
314	13822	19.000000576127	3
314	13856	19.000620576127	1
314	14399	19.284008451607	3
314	14436	19.284452451607	1
314	14467	19.360235521813	3
314	14493	19.360599521813	1
314	14925	19.605826696699	3
314	14952	19.606318696699	1
314	14990	19.636063211859	3
314	15019	19.636459211859	1
314	15701	20.000000575666	3
314	15738	20.000620575666	1
314	16018	20.001714367461	3
314	16118	20.002142367461	1
314	17039	20.374410892558	3
314	17067	20.374902892558	1
314	17119	20.407887100215	3
314	17147	20.408251100215	1
314	18217	20.853109196921	3
314	18257	20.853553196921	1
315	13815	19	1
315	14061	19.03714599472	2
315	14087	19.03754199472	1
315	18136	20.77905101818	2
315	18165	20.77954301818	1
316	13857	19.000620576127	143
316	14437	19.284452451607	99
316	14494	19.360599521813	79
316	14953	19.606318696699	111
316	15020	19.636459211859	87
316	15739	20.000620575666	143
316	16119	20.002142367461	95
316	17068	20.374902892558	111
316	17148	20.408251100215	79
316	18258	20.853553196921	99
317	13857	19.000620576127	143
317	15739	20.000620575666	143
318	13969	19.00104898987	95
318	15863	20.001048976984	95
318	16511	20.102570538716	95
319	13974	19.00104903356	95
320	14058	19.03714599472	1
321	14060	19.03714599472	64
321	18135	20.77905101818	88
322	14060	19.03714599472	64
322	18135	20.77905101818	88
323	14060	19.03714599472	1
323	14060	19.03714599472	0
323	18135	20.77905101818	1
323	18135	20.77905101818	0
324	14060	19.03714599472	64
324	18135	20.77905101818	88
325	14060	19.03714599472	0
325	18135	20.77905101818	0
326	14060	19.03714599472	87
326	18135	20.77905101818	111
327	14437	19.284452451607	76
327	14494	19.360599521813	56
327	14953	19.606318696699	88
327	15020	19.636459211859	64
327	16119	20.002142367461	72
327	17068	20.374902892558	88
327	17148	20.408251100215	56
327	18258	20.853553196921	76
328	14838	19.5	0
328	14838	19.5	0
328	14838	19.5	4
329	14838	19.5	1
329	15702	20.000000617442	3
329	15740	20.000620617442	1
329	16024	20.001714552829	3
329	16131	20.002142552829	1
329	17041	20.374411077926	3
329	17076	20.374903077926	1
329	17254	20.461624697572	3
329	17282	20.461988697572	1
329	18138	20.779051428285	3
329	18170	20.779543428285	1
329	18218	20.853109235574	3
329	18262	20.853553235574	1
330	14838	19.5	1
330	14988	19.636062804074	2
330	15015	19.636458804074	1
330	18386	20.920075367671	2
331	14985	19.636062804074	1
332	14987	19.636062804074	64
332	18384	20.920075367671	88
332	18385	20.920075367671	88
333	14987	19.636062804074	64
333	18384	20.920075367671	88
333	18385	20.920075367671	88
334	14987	19.636062804074	1
334	14987	19.636062804074	0
334	18384	20.920075367671	1
334	18384	20.920075367671	0
334	18385	20.920075367671	1
334	18385	20.920075367671	0
335	14987	19.636062804074	64
335	18384	20.920075367671	88
335	18385	20.920075367671	88
336	14987	19.636062804074	0
336	18384	20.920075367671	0
336	18385	20.920075367671	0
337	14987	19.636062804074	87
337	18384	20.920075367671	111
337	18385	20.920075367671	111
338	15023	19.636459245816	87
339	15023	19.636459245816	64
340	15694	20	0
340	15694	20	0
340	15694	20	4
341	15694	20	1
341	16238	20.07639623639	3
341	16290	20.07688823639	1
341	16960	20.270725053685	3
341	17012	20.271089053685	1
341	17592	20.528293687272	3
341	17648	20.528785687272	1
341	17684	20.641539361031	3
341	17722	20.642031361031	1
341	17768	20.710452715893	3
341	17824	20.710944715893	1
341	17929	20.738109947693	3
341	17978	20.738505947693	1
341	18297	20.886648574403	3
341	18329	20.887140574403	1
342	15694	20	1
342	16877	20.218997168518	2
342	16905	20.219393168518	1
343	15741	20.000620617442	143
343	16132	20.002142552829	95
343	17077	20.374903077926	111
343	17283	20.461988697572	79
343	18171	20.779543428285	111
343	18263	20.853553235574	99
344	15741	20.000620617442	143
345	15865	20.001049053118	95
345	16514	20.102570648169	95
346	16132	20.002142552829	72
346	17077	20.374903077926	88
346	17283	20.461988697572	56
346	18171	20.779543428285	88
346	18263	20.853553235574	76
347	16191	20.002334455803	143
348	16193	20.002334579422	143
349	16291	20.07688823639	111
349	17013	20.271089053685	79
349	17649	20.528785687272	111
349	17723	20.642031361031	111
349	17825	20.710944715893	111
349	17979	20.738505947693	87
349	18330	20.887140574403	111
350	16291	20.07688823639	88
350	17013	20.271089053685	56
350	17649	20.528785687272	88
350	17723	20.642031361031	88
350	17825	20.710944715893	88
350	17979	20.738505947693	64
350	18330	20.887140574403	88
351	16874	20.218997168518	1
352	16876	20.218997168518	64
353	16876	20.218997168518	64
354	16876	20.218997168518	1
354	16876	20.218997168518	0
355	16876	20.218997168518	64
356	16876	20.218997168518	0
357	16876	20.218997168518	87
358	17503	20.5	0
358	17503	20.5	0
358	17503	20.5	4
359	17503	20.5	1
359	17508	20.502517351312	3
359	17537	20.503009351312	1
359	17587	20.528293544097	3
359	17628	20.528785544097	1
359	17760	20.710452187638	3
359	17792	20.710944187638	1
359	18302	20.886649062631	3
359	18349	20.887141062631	1
360	17503	20.5	1
360	17918	20.73810931074	2
360	17947	20.73850531074	1
361	17538	20.503009351312	111
361	17629	20.528785544097	111
361	17793	20.710944187638	111
361	18350	20.887141062631	111
362	17538	20.503009351312	88
362	17629	20.528785544097	88
362	17793	20.710944187638	88
362	18350	20.887141062631	88
363	17915	20.73810931074	1
364	17917	20.73810931074	64
365	17917	20.73810931074	64
366	17917	20.73810931074	1
366	17917	20.73810931074	0
367	17917	20.73810931074	64
368	17917	20.73810931074	0
369	17917	20.73810931074	87

